  Version,
    23.2;

  SimulationControl,
    YES,
    YES,
    YES,
    YES,
    YES,
    No,
    1;

  Building,
    Chongqing Medium Office FCU DOAS Pilot,
    0.0000,
    City,
    0.0400,
    0.2000,
    FullInteriorAndExterior,
    100,
    6;

  RunPeriod,
    annual,
    1,
    1,
    ,
    12,
    31,
    ,
    Sunday,
    No,
    No,
    No,
    Yes,
    Yes;

  Timestep,
    6;

  SurfaceConvectionAlgorithm:Inside,
    TARP;

  SurfaceConvectionAlgorithm:Outside,
    DOE-2;

  HeatBalanceAlgorithm,
    ConductionTransferFunction,
    200.0000;

  ZoneAirHeatBalanceAlgorithm,
    AnalyticalSolution;

  Sizing:Parameters,
    1.33,
    1.33,
    6;

  ConvergenceLimits,
    2,
    25;

  ShadowCalculation,
    PolygonClipping,
    Periodic,
    7,
    15000;

  Site:WaterMainsTemperature,
    CORRELATION,
    ,
    9.69,
    28.10;

  Site:GroundTemperature:BuildingSurface,
    19.527,
    19.502,
    19.527,
    19.527,
    19.527,
    19.527,
    19.527,
    19.527,
    19.527,
    19.527,
    19.527,
    19.527;

  ScheduleTypeLimits,
    Any Number;

  ScheduleTypeLimits,
    Fraction,
    0.0,
    1.0,
    CONTINUOUS;

  ScheduleTypeLimits,
    On/Off,
    0,
    1,
    DISCRETE;

  ScheduleTypeLimits,
    Temperature,
    -60,
    200,
    CONTINUOUS;

  Schedule:Compact,
    ALWAYS_ON,
    On/Off,
    Through: 12/31,
    For: AllDays,
    Until: 24:00,
    1;

  Schedule:Compact,
    Office Occupancy,
    Fraction,
    Through: 12/31,
    For: Weekdays SummerDesignDay,
    Until: 8:00,
    0.0,
    Until: 12:00,
    0.9,
    Until: 13:00,
    0.5,
    Until: 18:00,
    0.9,
    Until: 24:00,
    0.0,
    For: Saturday WinterDesignDay,
    Until: 8:00,
    0.0,
    Until: 12:00,
    0.5,
    Until: 24:00,
    0.0,
    For: AllOtherDays,
    Until: 24:00,
    0.0;

  Schedule:Compact,
    Office Lighting,
    Fraction,
    Through: 12/31,
    For: Weekdays SummerDesignDay,
    Until: 8:00,
    0.05,
    Until: 12:00,
    0.9,
    Until: 13:00,
    0.5,
    Until: 18:00,
    0.9,
    Until: 24:00,
    0.05,
    For: Saturday WinterDesignDay,
    Until: 8:00,
    0.05,
    Until: 12:00,
    0.5,
    Until: 24:00,
    0.05,
    For: AllOtherDays,
    Until: 24:00,
    0.0;

  Schedule:Compact,
    Office Equipment,
    Fraction,
    Through: 12/31,
    For: Weekdays SummerDesignDay,
    Until: 8:00,
    0.1,
    Until: 12:00,
    0.8,
    Until: 13:00,
    0.5,
    Until: 18:00,
    0.8,
    Until: 24:00,
    0.1,
    For: Saturday WinterDesignDay,
    Until: 8:00,
    0.1,
    Until: 12:00,
    0.5,
    Until: 24:00,
    0.1,
    For: AllOtherDays,
    Until: 24:00,
    0.0;

  Schedule:Compact,
    HVAC Operation,
    On/Off,
    Through: 12/31,
    For: Weekdays SummerDesignDay,
    Until: 7:00,
    0,
    Until: 19:00,
    1,
    Until: 24:00,
    0,
    For: Saturday,
    Until: 7:00,
    0,
    Until: 13:00,
    1,
    Until: 24:00,
    0,
    For: AllOtherDays,
    Until: 24:00,
    0;

  Material,
    M01 200mm Brick,
    MediumRough,
    0.200,
    0.890,
    1920,
    790,
    0.900,
    0.840,
    0.950;

  Material,
    M02 100mm Brick,
    MediumRough,
    0.100,
    0.890,
    1920,
    790,
    0.900;

  Material,
    M03 Wall XPS,
    MediumRough,
    0.030,
    0.030,
    35,
    1400,
    0.900;

  Material,
    M04 200mm Concrete Roof,
    MediumRough,
    0.200,
    1.310,
    2240,
    840,
    0.900;

  Material,
    M05 150mm Heavyweight Concrete Floor,
    MediumRough,
    0.150,
    1.950,
    2240,
    900,
    0.900;

  Material,
    M06 20mm Plaster,
    Smooth,
    0.020,
    0.720,
    1850,
    840,
    0.900;

  Material,
    M07 20mm Cement Mortar,
    Smooth,
    0.020,
    0.930,
    1800,
    1050,
    0.900;

  Material,
    M08 10mm Ceramic Tile,
    Smooth,
    0.010,
    1.500,
    2000,
    920,
    0.900;

  Material,
    M09 Roof XPS,
    MediumRough,
    0.040,
    0.030,
    35,
    1400,
    0.900;

  WindowMaterial:Glazing,
    Clear 3mm,
    SpectralAverage,
    ,
    0.0030,
    0.837,
    0.075,
    0.075,
    0.898,
    0.081,
    0.081,
    0.0,
    0.84,
    0.84;

  WindowMaterial:Gas,
    Air 12mm,
    Air,
    0.0127;

  Construction,
    Ext Wall,
    M06 20mm Plaster,
    M01 200mm Brick,
    M03 Wall XPS,
    M07 20mm Cement Mortar;

  Construction,
    Int Wall,
    M06 20mm Plaster,
    M02 100mm Brick,
    M06 20mm Plaster;

  Construction,
    Roof,
    M09 Roof XPS,
    M04 200mm Concrete Roof,
    M07 20mm Cement Mortar;

  Construction,
    Floor Slab,
    M05 150mm Heavyweight Concrete Floor,
    M08 10mm Ceramic Tile;

  Construction,
    Double Clear 3mm,
    Clear 3mm,
    Air 12mm,
    Clear 3mm;

  GlobalGeometryRules,
    UpperLeftCorner,
    Counterclockwise,
    World;

  Zone,
    ZF1_S,
    0.0,
    0.0,
    0.0,
    1,
    1,
    ,
    115.2;

  Zone,
    ZF1_N,
    0.0,
    0.0,
    0.0,
    1,
    1,
    ,
    115.2;

  Zone,
    ZF1_W,
    0.0,
    0.0,
    0.0,
    1,
    1,
    ,
    25.34;

  Zone,
    ZF1_E,
    0.0,
    0.0,
    0.0,
    1,
    1,
    ,
    25.34;

  Zone,
    ZF1_C,
    0.0,
    0.0,
    0.0,
    1,
    1,
    ,
    174.59;

  Zone,
    ZF2_S,
    0.0,
    0.0,
    0.0,
    1,
    1,
    ,
    115.2;

  Zone,
    ZF2_N,
    0.0,
    0.0,
    0.0,
    1,
    1,
    ,
    115.2;

  Zone,
    ZF2_W,
    0.0,
    0.0,
    0.0,
    1,
    1,
    ,
    25.34;

  Zone,
    ZF2_E,
    0.0,
    0.0,
    0.0,
    1,
    1,
    ,
    25.34;

  Zone,
    ZF2_C,
    0.0,
    0.0,
    0.0,
    1,
    1,
    ,
    174.59;

  BuildingSurface:Detailed,
    ZF1_S Floor,
    Floor,
    Floor Slab,
    ZF1_S,
    ,
    Ground,
    ,
    NoSun,
    NoWind,
    0.0,
    4,
    0.0000,
    0.0000,
    0.0000,
    0.0000,
    3.6000,
    0.0000,
    32.0000,
    3.6000,
    0.0000,
    32.0000,
    0.0000,
    0.0000;

  BuildingSurface:Detailed,
    ZF1_S Ceiling,
    Ceiling,
    Floor Slab,
    ZF1_S,
    ,
    Adiabatic,
    ,
    ,
    ,
    0.0,
    4,
    0.0000,
    0.0000,
    3.5000,
    32.0000,
    0.0000,
    3.5000,
    32.0000,
    3.6000,
    3.5000,
    0.0000,
    3.6000,
    3.5000;

  BuildingSurface:Detailed,
    ZF1_S Wall_S,
    Wall,
    Ext Wall,
    ZF1_S,
    ,
    Outdoors,
    ,
    SunExposed,
    WindExposed,
    0.0,
    4,
    0.0000,
    0.0000,
    0.0000,
    32.0000,
    0.0000,
    0.0000,
    32.0000,
    0.0000,
    3.5000,
    0.0000,
    0.0000,
    3.5000;

  BuildingSurface:Detailed,
    ZF1_S Wall_N,
    Wall,
    Int Wall,
    ZF1_S,
    ,
    Adiabatic,
    ,
    ,
    ,
    0.0,
    4,
    32.0000,
    3.6000,
    0.0000,
    0.0000,
    3.6000,
    0.0000,
    0.0000,
    3.6000,
    3.5000,
    32.0000,
    3.6000,
    3.5000;

  BuildingSurface:Detailed,
    ZF1_S Wall_W,
    Wall,
    Ext Wall,
    ZF1_S,
    ,
    Outdoors,
    ,
    SunExposed,
    WindExposed,
    0.0,
    4,
    0.0000,
    0.0000,
    0.0000,
    0.0000,
    3.6000,
    0.0000,
    0.0000,
    3.6000,
    3.5000,
    0.0000,
    0.0000,
    3.5000;

  BuildingSurface:Detailed,
    ZF1_S Wall_E,
    Wall,
    Ext Wall,
    ZF1_S,
    ,
    Outdoors,
    ,
    SunExposed,
    WindExposed,
    0.0,
    4,
    32.0000,
    3.6000,
    0.0000,
    32.0000,
    0.0000,
    0.0000,
    32.0000,
    0.0000,
    3.5000,
    32.0000,
    3.6000,
    3.5000;

  BuildingSurface:Detailed,
    ZF1_N Floor,
    Floor,
    Floor Slab,
    ZF1_N,
    ,
    Ground,
    ,
    NoSun,
    NoWind,
    0.0,
    4,
    0.0000,
    10.6400,
    0.0000,
    0.0000,
    14.2400,
    0.0000,
    32.0000,
    14.2400,
    0.0000,
    32.0000,
    10.6400,
    0.0000;

  BuildingSurface:Detailed,
    ZF1_N Ceiling,
    Ceiling,
    Floor Slab,
    ZF1_N,
    ,
    Adiabatic,
    ,
    ,
    ,
    0.0,
    4,
    0.0000,
    10.6400,
    3.5000,
    32.0000,
    10.6400,
    3.5000,
    32.0000,
    14.2400,
    3.5000,
    0.0000,
    14.2400,
    3.5000;

  BuildingSurface:Detailed,
    ZF1_N Wall_S,
    Wall,
    Int Wall,
    ZF1_N,
    ,
    Adiabatic,
    ,
    ,
    ,
    0.0,
    4,
    0.0000,
    10.6400,
    0.0000,
    32.0000,
    10.6400,
    0.0000,
    32.0000,
    10.6400,
    3.5000,
    0.0000,
    10.6400,
    3.5000;

  BuildingSurface:Detailed,
    ZF1_N Wall_N,
    Wall,
    Ext Wall,
    ZF1_N,
    ,
    Outdoors,
    ,
    SunExposed,
    WindExposed,
    0.0,
    4,
    32.0000,
    14.2400,
    0.0000,
    0.0000,
    14.2400,
    0.0000,
    0.0000,
    14.2400,
    3.5000,
    32.0000,
    14.2400,
    3.5000;

  BuildingSurface:Detailed,
    ZF1_N Wall_W,
    Wall,
    Ext Wall,
    ZF1_N,
    ,
    Outdoors,
    ,
    SunExposed,
    WindExposed,
    0.0,
    4,
    0.0000,
    10.6400,
    0.0000,
    0.0000,
    14.2400,
    0.0000,
    0.0000,
    14.2400,
    3.5000,
    0.0000,
    10.6400,
    3.5000;

  BuildingSurface:Detailed,
    ZF1_N Wall_E,
    Wall,
    Ext Wall,
    ZF1_N,
    ,
    Outdoors,
    ,
    SunExposed,
    WindExposed,
    0.0,
    4,
    32.0000,
    14.2400,
    0.0000,
    32.0000,
    10.6400,
    0.0000,
    32.0000,
    10.6400,
    3.5000,
    32.0000,
    14.2400,
    3.5000;

  BuildingSurface:Detailed,
    ZF1_W Floor,
    Floor,
    Floor Slab,
    ZF1_W,
    ,
    Ground,
    ,
    NoSun,
    NoWind,
    0.0,
    4,
    0.0000,
    3.6000,
    0.0000,
    0.0000,
    10.6400,
    0.0000,
    3.6000,
    10.6400,
    0.0000,
    3.6000,
    3.6000,
    0.0000;

  BuildingSurface:Detailed,
    ZF1_W Ceiling,
    Ceiling,
    Floor Slab,
    ZF1_W,
    ,
    Adiabatic,
    ,
    ,
    ,
    0.0,
    4,
    0.0000,
    3.6000,
    3.5000,
    3.6000,
    3.6000,
    3.5000,
    3.6000,
    10.6400,
    3.5000,
    0.0000,
    10.6400,
    3.5000;

  BuildingSurface:Detailed,
    ZF1_W Wall_S,
    Wall,
    Int Wall,
    ZF1_W,
    ,
    Adiabatic,
    ,
    ,
    ,
    0.0,
    4,
    0.0000,
    3.6000,
    0.0000,
    3.6000,
    3.6000,
    0.0000,
    3.6000,
    3.6000,
    3.5000,
    0.0000,
    3.6000,
    3.5000;

  BuildingSurface:Detailed,
    ZF1_W Wall_N,
    Wall,
    Int Wall,
    ZF1_W,
    ,
    Adiabatic,
    ,
    ,
    ,
    0.0,
    4,
    3.6000,
    10.6400,
    0.0000,
    0.0000,
    10.6400,
    0.0000,
    0.0000,
    10.6400,
    3.5000,
    3.6000,
    10.6400,
    3.5000;

  BuildingSurface:Detailed,
    ZF1_W Wall_W,
    Wall,
    Ext Wall,
    ZF1_W,
    ,
    Outdoors,
    ,
    SunExposed,
    WindExposed,
    0.0,
    4,
    0.0000,
    3.6000,
    0.0000,
    0.0000,
    10.6400,
    0.0000,
    0.0000,
    10.6400,
    3.5000,
    0.0000,
    3.6000,
    3.5000;

  BuildingSurface:Detailed,
    ZF1_W Wall_E,
    Wall,
    Int Wall,
    ZF1_W,
    ,
    Adiabatic,
    ,
    ,
    ,
    0.0,
    4,
    3.6000,
    10.6400,
    0.0000,
    3.6000,
    3.6000,
    0.0000,
    3.6000,
    3.6000,
    3.5000,
    3.6000,
    10.6400,
    3.5000;

  BuildingSurface:Detailed,
    ZF1_E Floor,
    Floor,
    Floor Slab,
    ZF1_E,
    ,
    Ground,
    ,
    NoSun,
    NoWind,
    0.0,
    4,
    28.4000,
    3.6000,
    0.0000,
    28.4000,
    10.6400,
    0.0000,
    32.0000,
    10.6400,
    0.0000,
    32.0000,
    3.6000,
    0.0000;

  BuildingSurface:Detailed,
    ZF1_E Ceiling,
    Ceiling,
    Floor Slab,
    ZF1_E,
    ,
    Adiabatic,
    ,
    ,
    ,
    0.0,
    4,
    28.4000,
    3.6000,
    3.5000,
    32.0000,
    3.6000,
    3.5000,
    32.0000,
    10.6400,
    3.5000,
    28.4000,
    10.6400,
    3.5000;

  BuildingSurface:Detailed,
    ZF1_E Wall_S,
    Wall,
    Int Wall,
    ZF1_E,
    ,
    Adiabatic,
    ,
    ,
    ,
    0.0,
    4,
    28.4000,
    3.6000,
    0.0000,
    32.0000,
    3.6000,
    0.0000,
    32.0000,
    3.6000,
    3.5000,
    28.4000,
    3.6000,
    3.5000;

  BuildingSurface:Detailed,
    ZF1_E Wall_N,
    Wall,
    Int Wall,
    ZF1_E,
    ,
    Adiabatic,
    ,
    ,
    ,
    0.0,
    4,
    32.0000,
    10.6400,
    0.0000,
    28.4000,
    10.6400,
    0.0000,
    28.4000,
    10.6400,
    3.5000,
    32.0000,
    10.6400,
    3.5000;

  BuildingSurface:Detailed,
    ZF1_E Wall_W,
    Wall,
    Int Wall,
    ZF1_E,
    ,
    Adiabatic,
    ,
    ,
    ,
    0.0,
    4,
    28.4000,
    3.6000,
    0.0000,
    28.4000,
    10.6400,
    0.0000,
    28.4000,
    10.6400,
    3.5000,
    28.4000,
    3.6000,
    3.5000;

  BuildingSurface:Detailed,
    ZF1_E Wall_E,
    Wall,
    Ext Wall,
    ZF1_E,
    ,
    Outdoors,
    ,
    SunExposed,
    WindExposed,
    0.0,
    4,
    32.0000,
    10.6400,
    0.0000,
    32.0000,
    3.6000,
    0.0000,
    32.0000,
    3.6000,
    3.5000,
    32.0000,
    10.6400,
    3.5000;

  BuildingSurface:Detailed,
    ZF1_C Floor,
    Floor,
    Floor Slab,
    ZF1_C,
    ,
    Ground,
    ,
    NoSun,
    NoWind,
    0.0,
    4,
    3.6000,
    3.6000,
    0.0000,
    3.6000,
    10.6400,
    0.0000,
    28.4000,
    10.6400,
    0.0000,
    28.4000,
    3.6000,
    0.0000;

  BuildingSurface:Detailed,
    ZF1_C Ceiling,
    Ceiling,
    Floor Slab,
    ZF1_C,
    ,
    Adiabatic,
    ,
    ,
    ,
    0.0,
    4,
    3.6000,
    3.6000,
    3.5000,
    28.4000,
    3.6000,
    3.5000,
    28.4000,
    10.6400,
    3.5000,
    3.6000,
    10.6400,
    3.5000;

  BuildingSurface:Detailed,
    ZF1_C Wall_S,
    Wall,
    Int Wall,
    ZF1_C,
    ,
    Adiabatic,
    ,
    ,
    ,
    0.0,
    4,
    3.6000,
    3.6000,
    0.0000,
    28.4000,
    3.6000,
    0.0000,
    28.4000,
    3.6000,
    3.5000,
    3.6000,
    3.6000,
    3.5000;

  BuildingSurface:Detailed,
    ZF1_C Wall_N,
    Wall,
    Int Wall,
    ZF1_C,
    ,
    Adiabatic,
    ,
    ,
    ,
    0.0,
    4,
    28.4000,
    10.6400,
    0.0000,
    3.6000,
    10.6400,
    0.0000,
    3.6000,
    10.6400,
    3.5000,
    28.4000,
    10.6400,
    3.5000;

  BuildingSurface:Detailed,
    ZF1_C Wall_W,
    Wall,
    Int Wall,
    ZF1_C,
    ,
    Adiabatic,
    ,
    ,
    ,
    0.0,
    4,
    3.6000,
    3.6000,
    0.0000,
    3.6000,
    10.6400,
    0.0000,
    3.6000,
    10.6400,
    3.5000,
    3.6000,
    3.6000,
    3.5000;

  BuildingSurface:Detailed,
    ZF1_C Wall_E,
    Wall,
    Int Wall,
    ZF1_C,
    ,
    Adiabatic,
    ,
    ,
    ,
    0.0,
    4,
    28.4000,
    10.6400,
    0.0000,
    28.4000,
    3.6000,
    0.0000,
    28.4000,
    3.6000,
    3.5000,
    28.4000,
    10.6400,
    3.5000;

  BuildingSurface:Detailed,
    ZF2_S Floor,
    Floor,
    Floor Slab,
    ZF2_S,
    ,
    Adiabatic,
    ,
    ,
    ,
    0.0,
    4,
    0.0000,
    0.0000,
    3.5000,
    0.0000,
    3.6000,
    3.5000,
    32.0000,
    3.6000,
    3.5000,
    32.0000,
    0.0000,
    3.5000;

  BuildingSurface:Detailed,
    ZF2_S Roof,
    Roof,
    Roof,
    ZF2_S,
    ,
    Outdoors,
    ,
    SunExposed,
    WindExposed,
    0.0,
    4,
    0.0000,
    0.0000,
    7.0000,
    32.0000,
    0.0000,
    7.0000,
    32.0000,
    3.6000,
    7.0000,
    0.0000,
    3.6000,
    7.0000;

  BuildingSurface:Detailed,
    ZF2_S Wall_S,
    Wall,
    Ext Wall,
    ZF2_S,
    ,
    Outdoors,
    ,
    SunExposed,
    WindExposed,
    0.0,
    4,
    0.0000,
    0.0000,
    3.5000,
    32.0000,
    0.0000,
    3.5000,
    32.0000,
    0.0000,
    7.0000,
    0.0000,
    0.0000,
    7.0000;

  BuildingSurface:Detailed,
    ZF2_S Wall_N,
    Wall,
    Int Wall,
    ZF2_S,
    ,
    Adiabatic,
    ,
    ,
    ,
    0.0,
    4,
    32.0000,
    3.6000,
    3.5000,
    0.0000,
    3.6000,
    3.5000,
    0.0000,
    3.6000,
    7.0000,
    32.0000,
    3.6000,
    7.0000;

  BuildingSurface:Detailed,
    ZF2_S Wall_W,
    Wall,
    Ext Wall,
    ZF2_S,
    ,
    Outdoors,
    ,
    SunExposed,
    WindExposed,
    0.0,
    4,
    0.0000,
    0.0000,
    3.5000,
    0.0000,
    3.6000,
    3.5000,
    0.0000,
    3.6000,
    7.0000,
    0.0000,
    0.0000,
    7.0000;

  BuildingSurface:Detailed,
    ZF2_S Wall_E,
    Wall,
    Ext Wall,
    ZF2_S,
    ,
    Outdoors,
    ,
    SunExposed,
    WindExposed,
    0.0,
    4,
    32.0000,
    3.6000,
    3.5000,
    32.0000,
    0.0000,
    3.5000,
    32.0000,
    0.0000,
    7.0000,
    32.0000,
    3.6000,
    7.0000;

  BuildingSurface:Detailed,
    ZF2_N Floor,
    Floor,
    Floor Slab,
    ZF2_N,
    ,
    Adiabatic,
    ,
    ,
    ,
    0.0,
    4,
    0.0000,
    10.6400,
    3.5000,
    0.0000,
    14.2400,
    3.5000,
    32.0000,
    14.2400,
    3.5000,
    32.0000,
    10.6400,
    3.5000;

  BuildingSurface:Detailed,
    ZF2_N Roof,
    Roof,
    Roof,
    ZF2_N,
    ,
    Outdoors,
    ,
    SunExposed,
    WindExposed,
    0.0,
    4,
    0.0000,
    10.6400,
    7.0000,
    32.0000,
    10.6400,
    7.0000,
    32.0000,
    14.2400,
    7.0000,
    0.0000,
    14.2400,
    7.0000;

  BuildingSurface:Detailed,
    ZF2_N Wall_S,
    Wall,
    Int Wall,
    ZF2_N,
    ,
    Adiabatic,
    ,
    ,
    ,
    0.0,
    4,
    0.0000,
    10.6400,
    3.5000,
    32.0000,
    10.6400,
    3.5000,
    32.0000,
    10.6400,
    7.0000,
    0.0000,
    10.6400,
    7.0000;

  BuildingSurface:Detailed,
    ZF2_N Wall_N,
    Wall,
    Ext Wall,
    ZF2_N,
    ,
    Outdoors,
    ,
    SunExposed,
    WindExposed,
    0.0,
    4,
    32.0000,
    14.2400,
    3.5000,
    0.0000,
    14.2400,
    3.5000,
    0.0000,
    14.2400,
    7.0000,
    32.0000,
    14.2400,
    7.0000;

  BuildingSurface:Detailed,
    ZF2_N Wall_W,
    Wall,
    Ext Wall,
    ZF2_N,
    ,
    Outdoors,
    ,
    SunExposed,
    WindExposed,
    0.0,
    4,
    0.0000,
    10.6400,
    3.5000,
    0.0000,
    14.2400,
    3.5000,
    0.0000,
    14.2400,
    7.0000,
    0.0000,
    10.6400,
    7.0000;

  BuildingSurface:Detailed,
    ZF2_N Wall_E,
    Wall,
    Ext Wall,
    ZF2_N,
    ,
    Outdoors,
    ,
    SunExposed,
    WindExposed,
    0.0,
    4,
    32.0000,
    14.2400,
    3.5000,
    32.0000,
    10.6400,
    3.5000,
    32.0000,
    10.6400,
    7.0000,
    32.0000,
    14.2400,
    7.0000;

  BuildingSurface:Detailed,
    ZF2_W Floor,
    Floor,
    Floor Slab,
    ZF2_W,
    ,
    Adiabatic,
    ,
    ,
    ,
    0.0,
    4,
    0.0000,
    3.6000,
    3.5000,
    0.0000,
    10.6400,
    3.5000,
    3.6000,
    10.6400,
    3.5000,
    3.6000,
    3.6000,
    3.5000;

  BuildingSurface:Detailed,
    ZF2_W Roof,
    Roof,
    Roof,
    ZF2_W,
    ,
    Outdoors,
    ,
    SunExposed,
    WindExposed,
    0.0,
    4,
    0.0000,
    3.6000,
    7.0000,
    3.6000,
    3.6000,
    7.0000,
    3.6000,
    10.6400,
    7.0000,
    0.0000,
    10.6400,
    7.0000;

  BuildingSurface:Detailed,
    ZF2_W Wall_S,
    Wall,
    Int Wall,
    ZF2_W,
    ,
    Adiabatic,
    ,
    ,
    ,
    0.0,
    4,
    0.0000,
    3.6000,
    3.5000,
    3.6000,
    3.6000,
    3.5000,
    3.6000,
    3.6000,
    7.0000,
    0.0000,
    3.6000,
    7.0000;

  BuildingSurface:Detailed,
    ZF2_W Wall_N,
    Wall,
    Int Wall,
    ZF2_W,
    ,
    Adiabatic,
    ,
    ,
    ,
    0.0,
    4,
    3.6000,
    10.6400,
    3.5000,
    0.0000,
    10.6400,
    3.5000,
    0.0000,
    10.6400,
    7.0000,
    3.6000,
    10.6400,
    7.0000;

  BuildingSurface:Detailed,
    ZF2_W Wall_W,
    Wall,
    Ext Wall,
    ZF2_W,
    ,
    Outdoors,
    ,
    SunExposed,
    WindExposed,
    0.0,
    4,
    0.0000,
    3.6000,
    3.5000,
    0.0000,
    10.6400,
    3.5000,
    0.0000,
    10.6400,
    7.0000,
    0.0000,
    3.6000,
    7.0000;

  BuildingSurface:Detailed,
    ZF2_W Wall_E,
    Wall,
    Int Wall,
    ZF2_W,
    ,
    Adiabatic,
    ,
    ,
    ,
    0.0,
    4,
    3.6000,
    10.6400,
    3.5000,
    3.6000,
    3.6000,
    3.5000,
    3.6000,
    3.6000,
    7.0000,
    3.6000,
    10.6400,
    7.0000;

  BuildingSurface:Detailed,
    ZF2_E Floor,
    Floor,
    Floor Slab,
    ZF2_E,
    ,
    Adiabatic,
    ,
    ,
    ,
    0.0,
    4,
    28.4000,
    3.6000,
    3.5000,
    28.4000,
    10.6400,
    3.5000,
    32.0000,
    10.6400,
    3.5000,
    32.0000,
    3.6000,
    3.5000;

  BuildingSurface:Detailed,
    ZF2_E Roof,
    Roof,
    Roof,
    ZF2_E,
    ,
    Outdoors,
    ,
    SunExposed,
    WindExposed,
    0.0,
    4,
    28.4000,
    3.6000,
    7.0000,
    32.0000,
    3.6000,
    7.0000,
    32.0000,
    10.6400,
    7.0000,
    28.4000,
    10.6400,
    7.0000;

  BuildingSurface:Detailed,
    ZF2_E Wall_S,
    Wall,
    Int Wall,
    ZF2_E,
    ,
    Adiabatic,
    ,
    ,
    ,
    0.0,
    4,
    28.4000,
    3.6000,
    3.5000,
    32.0000,
    3.6000,
    3.5000,
    32.0000,
    3.6000,
    7.0000,
    28.4000,
    3.6000,
    7.0000;

  BuildingSurface:Detailed,
    ZF2_E Wall_N,
    Wall,
    Int Wall,
    ZF2_E,
    ,
    Adiabatic,
    ,
    ,
    ,
    0.0,
    4,
    32.0000,
    10.6400,
    3.5000,
    28.4000,
    10.6400,
    3.5000,
    28.4000,
    10.6400,
    7.0000,
    32.0000,
    10.6400,
    7.0000;

  BuildingSurface:Detailed,
    ZF2_E Wall_W,
    Wall,
    Int Wall,
    ZF2_E,
    ,
    Adiabatic,
    ,
    ,
    ,
    0.0,
    4,
    28.4000,
    3.6000,
    3.5000,
    28.4000,
    10.6400,
    3.5000,
    28.4000,
    10.6400,
    7.0000,
    28.4000,
    3.6000,
    7.0000;

  BuildingSurface:Detailed,
    ZF2_E Wall_E,
    Wall,
    Ext Wall,
    ZF2_E,
    ,
    Outdoors,
    ,
    SunExposed,
    WindExposed,
    0.0,
    4,
    32.0000,
    10.6400,
    3.5000,
    32.0000,
    3.6000,
    3.5000,
    32.0000,
    3.6000,
    7.0000,
    32.0000,
    10.6400,
    7.0000;

  BuildingSurface:Detailed,
    ZF2_C Floor,
    Floor,
    Floor Slab,
    ZF2_C,
    ,
    Adiabatic,
    ,
    ,
    ,
    0.0,
    4,
    3.6000,
    3.6000,
    3.5000,
    3.6000,
    10.6400,
    3.5000,
    28.4000,
    10.6400,
    3.5000,
    28.4000,
    3.6000,
    3.5000;

  BuildingSurface:Detailed,
    ZF2_C Roof,
    Roof,
    Roof,
    ZF2_C,
    ,
    Outdoors,
    ,
    SunExposed,
    WindExposed,
    0.0,
    4,
    3.6000,
    3.6000,
    7.0000,
    28.4000,
    3.6000,
    7.0000,
    28.4000,
    10.6400,
    7.0000,
    3.6000,
    10.6400,
    7.0000;

  BuildingSurface:Detailed,
    ZF2_C Wall_S,
    Wall,
    Int Wall,
    ZF2_C,
    ,
    Adiabatic,
    ,
    ,
    ,
    0.0,
    4,
    3.6000,
    3.6000,
    3.5000,
    28.4000,
    3.6000,
    3.5000,
    28.4000,
    3.6000,
    7.0000,
    3.6000,
    3.6000,
    7.0000;

  BuildingSurface:Detailed,
    ZF2_C Wall_N,
    Wall,
    Int Wall,
    ZF2_C,
    ,
    Adiabatic,
    ,
    ,
    ,
    0.0,
    4,
    28.4000,
    10.6400,
    3.5000,
    3.6000,
    10.6400,
    3.5000,
    3.6000,
    10.6400,
    7.0000,
    28.4000,
    10.6400,
    7.0000;

  BuildingSurface:Detailed,
    ZF2_C Wall_W,
    Wall,
    Int Wall,
    ZF2_C,
    ,
    Adiabatic,
    ,
    ,
    ,
    0.0,
    4,
    3.6000,
    3.6000,
    3.5000,
    3.6000,
    10.6400,
    3.5000,
    3.6000,
    10.6400,
    7.0000,
    3.6000,
    3.6000,
    7.0000;

  BuildingSurface:Detailed,
    ZF2_C Wall_E,
    Wall,
    Int Wall,
    ZF2_C,
    ,
    Adiabatic,
    ,
    ,
    ,
    0.0,
    4,
    28.4000,
    10.6400,
    3.5000,
    28.4000,
    3.6000,
    3.5000,
    28.4000,
    3.6000,
    7.0000,
    28.4000,
    10.6400,
    7.0000;

  FenestrationSurface:Detailed,
    ZF1_S Window ZF1_S Wall_S 1,
    Window,
    Double Clear 3mm,
    ZF1_S Wall_S,
    ,
    0.0,
    ,
    1,
    4,
    4.5000,
    0.0000,
    0.3000,
    9.1667,
    0.0000,
    0.3000,
    9.1667,
    0.0000,
    3.1000,
    4.5000,
    0.0000,
    3.1000;

  FenestrationSurface:Detailed,
    ZF1_S Window ZF1_S Wall_S 2,
    Window,
    Double Clear 3mm,
    ZF1_S Wall_S,
    ,
    0.0,
    ,
    1,
    4,
    13.6667,
    0.0000,
    0.3000,
    18.3333,
    0.0000,
    0.3000,
    18.3333,
    0.0000,
    3.1000,
    13.6667,
    0.0000,
    3.1000;

  FenestrationSurface:Detailed,
    ZF1_S Window ZF1_S Wall_S 3,
    Window,
    Double Clear 3mm,
    ZF1_S Wall_S,
    ,
    0.0,
    ,
    1,
    4,
    22.8333,
    0.0000,
    0.3000,
    27.5000,
    0.0000,
    0.3000,
    27.5000,
    0.0000,
    3.1000,
    22.8333,
    0.0000,
    3.1000;

  FenestrationSurface:Detailed,
    ZF1_N Window ZF1_N Wall_N 1,
    Window,
    Double Clear 3mm,
    ZF1_N Wall_N,
    ,
    0.0,
    ,
    1,
    4,
    4.5000,
    14.2400,
    3.1000,
    9.1667,
    14.2400,
    3.1000,
    9.1667,
    14.2400,
    0.3000,
    4.5000,
    14.2400,
    0.3000;

  FenestrationSurface:Detailed,
    ZF1_N Window ZF1_N Wall_N 2,
    Window,
    Double Clear 3mm,
    ZF1_N Wall_N,
    ,
    0.0,
    ,
    1,
    4,
    13.6667,
    14.2400,
    3.1000,
    18.3333,
    14.2400,
    3.1000,
    18.3333,
    14.2400,
    0.3000,
    13.6667,
    14.2400,
    0.3000;

  FenestrationSurface:Detailed,
    ZF1_N Window ZF1_N Wall_N 3,
    Window,
    Double Clear 3mm,
    ZF1_N Wall_N,
    ,
    0.0,
    ,
    1,
    4,
    22.8333,
    14.2400,
    3.1000,
    27.5000,
    14.2400,
    3.1000,
    27.5000,
    14.2400,
    0.3000,
    22.8333,
    14.2400,
    0.3000;

  FenestrationSurface:Detailed,
    ZF2_S Window ZF2_S Wall_S 1,
    Window,
    Double Clear 3mm,
    ZF2_S Wall_S,
    ,
    0.0,
    ,
    1,
    4,
    4.5000,
    0.0000,
    3.8000,
    9.1667,
    0.0000,
    3.8000,
    9.1667,
    0.0000,
    6.6000,
    4.5000,
    0.0000,
    6.6000;

  FenestrationSurface:Detailed,
    ZF2_S Window ZF2_S Wall_S 2,
    Window,
    Double Clear 3mm,
    ZF2_S Wall_S,
    ,
    0.0,
    ,
    1,
    4,
    13.6667,
    0.0000,
    3.8000,
    18.3333,
    0.0000,
    3.8000,
    18.3333,
    0.0000,
    6.6000,
    13.6667,
    0.0000,
    6.6000;

  FenestrationSurface:Detailed,
    ZF2_S Window ZF2_S Wall_S 3,
    Window,
    Double Clear 3mm,
    ZF2_S Wall_S,
    ,
    0.0,
    ,
    1,
    4,
    22.8333,
    0.0000,
    3.8000,
    27.5000,
    0.0000,
    3.8000,
    27.5000,
    0.0000,
    6.6000,
    22.8333,
    0.0000,
    6.6000;

  FenestrationSurface:Detailed,
    ZF2_N Window ZF2_N Wall_N 1,
    Window,
    Double Clear 3mm,
    ZF2_N Wall_N,
    ,
    0.0,
    ,
    1,
    4,
    4.5000,
    14.2400,
    6.6000,
    9.1667,
    14.2400,
    6.6000,
    9.1667,
    14.2400,
    3.8000,
    4.5000,
    14.2400,
    3.8000;

  FenestrationSurface:Detailed,
    ZF2_N Window ZF2_N Wall_N 2,
    Window,
    Double Clear 3mm,
    ZF2_N Wall_N,
    ,
    0.0,
    ,
    1,
    4,
    13.6667,
    14.2400,
    6.6000,
    18.3333,
    14.2400,
    6.6000,
    18.3333,
    14.2400,
    3.8000,
    13.6667,
    14.2400,
    3.8000;

  FenestrationSurface:Detailed,
    ZF2_N Window ZF2_N Wall_N 3,
    Window,
    Double Clear 3mm,
    ZF2_N Wall_N,
    ,
    0.0,
    ,
    1,
    4,
    22.8333,
    14.2400,
    6.6000,
    27.5000,
    14.2400,
    6.6000,
    27.5000,
    14.2400,
    3.8000,
    22.8333,
    14.2400,
    3.8000;

  People,
    ZF1_S People,
    ZF1_S,
    Office Occupancy,
    People,
    12,
    ,
    ,
    0.3,
    ,
    ALWAYS_ON;

  Lights,
    ZF1_S Lights,
    ZF1_S,
    Office Lighting,
    Watts/Area,
    10.0;

  ElectricEquipment,
    ZF1_S Equipment,
    ZF1_S,
    Office Equipment,
    Watts/Area,
    15.0;

  ZoneInfiltration:DesignFlowRate,
    ZF1_S Infiltration,
    ZF1_S,
    ALWAYS_ON,
    AirChanges/Hour,
    ,
    0.5;

  DesignSpecification:OutdoorAir,
    ZF1_S Outdoor Air,
    Flow/Person,
    0.00833,
    ,
    ,
    ;

  Sizing:Zone,
    ZF1_S,
    SupplyAirTemperature,
    12.8,
    ,
    SupplyAirTemperature,
    50.0,
    ,
    0.008,
    0.008,
    ZF1_S Outdoor Air,
    ,
    ,
    ,
    ,
    ,
    ,
    ,
    ,
    ,
    ,
    ,
    ;

  People,
    ZF1_N People,
    ZF1_N,
    Office Occupancy,
    People,
    12,
    ,
    ,
    0.3,
    ,
    ALWAYS_ON;

  Lights,
    ZF1_N Lights,
    ZF1_N,
    Office Lighting,
    Watts/Area,
    10.0;

  ElectricEquipment,
    ZF1_N Equipment,
    ZF1_N,
    Office Equipment,
    Watts/Area,
    15.0;

  ZoneInfiltration:DesignFlowRate,
    ZF1_N Infiltration,
    ZF1_N,
    ALWAYS_ON,
    AirChanges/Hour,
    ,
    0.5;

  DesignSpecification:OutdoorAir,
    ZF1_N Outdoor Air,
    Flow/Person,
    0.00833,
    ,
    ,
    ;

  Sizing:Zone,
    ZF1_N,
    SupplyAirTemperature,
    12.8,
    ,
    SupplyAirTemperature,
    50.0,
    ,
    0.008,
    0.008,
    ZF1_N Outdoor Air,
    ,
    ,
    ,
    ,
    ,
    ,
    ,
    ,
    ,
    ,
    ,
    ;

  People,
    ZF1_W People,
    ZF1_W,
    Office Occupancy,
    People,
    3,
    ,
    ,
    0.3,
    ,
    ALWAYS_ON;

  Lights,
    ZF1_W Lights,
    ZF1_W,
    Office Lighting,
    Watts/Area,
    10.0;

  ElectricEquipment,
    ZF1_W Equipment,
    ZF1_W,
    Office Equipment,
    Watts/Area,
    15.0;

  ZoneInfiltration:DesignFlowRate,
    ZF1_W Infiltration,
    ZF1_W,
    ALWAYS_ON,
    AirChanges/Hour,
    ,
    0.5;

  DesignSpecification:OutdoorAir,
    ZF1_W Outdoor Air,
    Flow/Person,
    0.00833,
    ,
    ,
    ;

  Sizing:Zone,
    ZF1_W,
    SupplyAirTemperature,
    12.8,
    ,
    SupplyAirTemperature,
    50.0,
    ,
    0.008,
    0.008,
    ZF1_W Outdoor Air,
    ,
    ,
    ,
    ,
    ,
    ,
    ,
    ,
    ,
    ,
    ,
    ;

  People,
    ZF1_E People,
    ZF1_E,
    Office Occupancy,
    People,
    3,
    ,
    ,
    0.3,
    ,
    ALWAYS_ON;

  Lights,
    ZF1_E Lights,
    ZF1_E,
    Office Lighting,
    Watts/Area,
    10.0;

  ElectricEquipment,
    ZF1_E Equipment,
    ZF1_E,
    Office Equipment,
    Watts/Area,
    15.0;

  ZoneInfiltration:DesignFlowRate,
    ZF1_E Infiltration,
    ZF1_E,
    ALWAYS_ON,
    AirChanges/Hour,
    ,
    0.5;

  DesignSpecification:OutdoorAir,
    ZF1_E Outdoor Air,
    Flow/Person,
    0.00833,
    ,
    ,
    ;

  Sizing:Zone,
    ZF1_E,
    SupplyAirTemperature,
    12.8,
    ,
    SupplyAirTemperature,
    50.0,
    ,
    0.008,
    0.008,
    ZF1_E Outdoor Air,
    ,
    ,
    ,
    ,
    ,
    ,
    ,
    ,
    ,
    ,
    ,
    ;

  People,
    ZF1_C People,
    ZF1_C,
    Office Occupancy,
    People,
    17,
    ,
    ,
    0.3,
    ,
    ALWAYS_ON;

  Lights,
    ZF1_C Lights,
    ZF1_C,
    Office Lighting,
    Watts/Area,