  Version,
    23.2;

  SimulationControl,
    YES,
    YES,
    YES,
    YES,
    NO,
    No,
    1;

  Building,
    Medium Office Neutral Base,
    0.0000,
    City,
    0.0400,
    0.4000,
    FullInteriorAndExterior,
    100,
    6;

  RunPeriod,
    annual,
    1,
    1,
    ,
    12,
    31,
    ,
    Sunday,
    No,
    No,
    No,
    Yes,
    Yes;

  Timestep,
    6;

  SurfaceConvectionAlgorithm:Inside,
    TARP;

  SurfaceConvectionAlgorithm:Outside,
    DOE-2;

  HeatBalanceAlgorithm,
    ConductionTransferFunction,
    200.0000;

  ZoneAirHeatBalanceAlgorithm,
    AnalyticalSolution;

  Sizing:Parameters,
    1.33,
    1.33,
    6;

  ConvergenceLimits,
    2,
    25;

  ShadowCalculation,
    PolygonClipping,
    Periodic,
    7,
    15000;

  Site:WaterMainsTemperature,
    CORRELATION,
    ,
    9.69,
    28.10;

  Site:GroundTemperature:BuildingSurface,
    19.527,
    19.502,
    19.527,
    19.527,
    19.527,
    19.527,
    19.527,
    19.527,
    19.527,
    19.527,
    19.527,
    19.527;

  ScheduleTypeLimits,
    Any Number;

  ScheduleTypeLimits,
    Fraction,
    0.0,
    1.0,
    CONTINUOUS;

  ScheduleTypeLimits,
    On/Off,
    0,
    1,
    DISCRETE;

  ScheduleTypeLimits,
    Temperature,
    -60,
    200,
    CONTINUOUS;

  ScheduleTypeLimits,
    ActivityLevel,
    0,
    500,
    CONTINUOUS;

  Schedule:Compact,
    ALWAYS_ON,
    On/Off,
    Through: 12/31,
    For: AllDays,
    Until: 24:00,
    1;

  Schedule:Compact,
    Office Occupancy,
    Fraction,
    Through: 12/31,
    For: Weekdays SummerDesignDay,
    Until: 8:00,
    0.0,
    Until: 12:00,
    0.9,
    Until: 13:00,
    0.5,
    Until: 18:00,
    0.9,
    Until: 24:00,
    0.0,
    For: Saturday WinterDesignDay,
    Until: 8:00,
    0.0,
    Until: 12:00,
    0.5,
    Until: 24:00,
    0.0,
    For: AllOtherDays,
    Until: 24:00,
    0.0;

  Schedule:Compact,
    Office Activity,
    ActivityLevel,
    Through: 12/31,
    For: AllDays,
    Until: 24:00,
    120;

  Schedule:Compact,
    Office Lighting,
    Fraction,
    Through: 12/31,
    For: Weekdays SummerDesignDay,
    Until: 8:00,
    0.05,
    Until: 12:00,
    0.9,
    Until: 13:00,
    0.5,
    Until: 18:00,
    0.9,
    Until: 24:00,
    0.05,
    For: Saturday WinterDesignDay,
    Until: 8:00,
    0.05,
    Until: 12:00,
    0.5,
    Until: 24:00,
    0.05,
    For: AllOtherDays,
    Until: 24:00,
    0.0;

  Schedule:Compact,
    Office Equipment,
    Fraction,
    Through: 12/31,
    For: Weekdays SummerDesignDay,
    Until: 8:00,
    0.1,
    Until: 12:00,
    0.8,
    Until: 13:00,
    0.5,
    Until: 18:00,
    0.8,
    Until: 24:00,
    0.1,
    For: Saturday WinterDesignDay,
    Until: 8:00,
    0.1,
    Until: 12:00,
    0.5,
    Until: 24:00,
    0.1,
    For: AllOtherDays,
    Until: 24:00,
    0.0;

  Schedule:Compact,
    HVAC Operation,
    On/Off,
    Through: 12/31,
    For: Weekdays SummerDesignDay,
    Until: 7:00,
    0,
    Until: 19:00,
    1,
    Until: 24:00,
    0,
    For: Saturday,
    Until: 7:00,
    0,
    Until: 13:00,
    1,
    Until: 24:00,
    0,
    For: AllOtherDays,
    Until: 24:00,
    0;

  Material,
    M01 200mm Brick,
    MediumRough,
    0.200,
    0.890,
    1920,
    790,
    0.900,
    0.840,
    0.950;

  Material,
    M02 100mm Brick,
    MediumRough,
    0.100,
    0.890,
    1920,
    790,
    0.900;

  Material,
    M03 Wall XPS,
    MediumRough,
    0.050,
    0.030,
    35,
    1400,
    0.900;

  Material,
    M04 200mm Concrete Roof,
    MediumRough,
    0.200,
    1.310,
    2240,
    840,
    0.900;

  Material,
    M05 150mm Heavyweight Concrete Floor,
    MediumRough,
    0.150,
    1.950,
    2240,
    900,
    0.900;

  Material,
    M06 20mm Plaster,
    Smooth,
    0.020,
    0.720,
    1850,
    840,
    0.900;

  Material,
    M07 20mm Cement Mortar,
    Smooth,
    0.020,
    0.930,
    1800,
    1050,
    0.900;

  Material,
    M08 10mm Ceramic Tile,
    Smooth,
    0.010,
    1.500,
    2000,
    920,
    0.900;

  Material,
    M09 Roof XPS,
    MediumRough,
    0.070,
    0.030,
    35,
    1400,
    0.900;

  WindowMaterial:Glazing,
    Clear 3mm,
    SpectralAverage,
    ,
    0.0030,
    0.837,
    0.075,
    0.075,
    0.898,
    0.081,
    0.081,
    0.0,
    0.84,
    0.84;

  WindowMaterial:Gas,
    Air 12mm,
    Air,
    0.0127;

  Construction,
    Ext Wall,
    M06 20mm Plaster,
    M01 200mm Brick,
    M03 Wall XPS,
    M07 20mm Cement Mortar;

  Construction,
    Int Wall,
    M06 20mm Plaster,
    M02 100mm Brick,
    M06 20mm Plaster;

  Construction,
    Roof,
    M09 Roof XPS,
    M04 200mm Concrete Roof,
    M07 20mm Cement Mortar;

  Construction,
    Floor Slab,
    M05 150mm Heavyweight Concrete Floor,
    M08 10mm Ceramic Tile;

  Construction,
    Double Clear 3mm,
    Clear 3mm,
    Air 12mm,
    Clear 3mm;

  GlobalGeometryRules,
    UpperLeftCorner,
    Counterclockwise,
    World;

  Zone,
    ZF1_S,
    0.0,
    0.0,
    0.0,
    1,
    1,
    ,
    115.2;

  Zone,
    ZF1_N,
    0.0,
    0.0,
    0.0,
    1,
    1,
    ,
    115.2;

  Zone,
    ZF1_W,
    0.0,
    0.0,
    0.0,
    1,
    1,
    ,
    25.02;

  Zone,
    ZF1_E,
    0.0,
    0.0,
    0.0,
    1,
    1,
    ,
    25.02;

  Zone,
    ZF1_C,
    0.0,
    0.0,
    0.0,
    1,
    1,
    ,
    172.36;

  Zone,
    ZF2_S,
    0.0,
    0.0,
    0.0,
    1,
    1,
    ,
    115.2;

  Zone,
    ZF2_N,
    0.0,
    0.0,
    0.0,
    1,
    1,
    ,
    115.2;

  Zone,
    ZF2_W,
    0.0,
    0.0,
    0.0,
    1,
    1,
    ,
    25.02;

  Zone,
    ZF2_E,
    0.0,
    0.0,
    0.0,
    1,
    1,
    ,
    25.02;

  Zone,
    ZF2_C,
    0.0,
    0.0,
    0.0,
    1,
    1,
    ,
    172.36;

  Zone,
    ZF3_S,
    0.0,
    0.0,
    0.0,
    1,
    1,
    ,
    115.2;

  Zone,
    ZF3_N,
    0.0,
    0.0,
    0.0,
    1,
    1,
    ,
    115.2;

  Zone,
    ZF3_W,
    0.0,
    0.0,
    0.0,
    1,
    1,
    ,
    25.02;

  Zone,
    ZF3_E,
    0.0,
    0.0,
    0.0,
    1,
    1,
    ,
    25.02;

  Zone,
    ZF3_C,
    0.0,
    0.0,
    0.0,
    1,
    1,
    ,
    172.36;

  BuildingSurface:Detailed,
    ZF1_S Floor,
    Floor,
    Floor Slab,
    ZF1_S,
    ,
    Ground,
    ,
    NoSun,
    NoWind,
    0.0,
    4,
    0.0000,
    0.0000,
    0.0000,
    0.0000,
    3.6000,
    0.0000,
    32.0000,
    3.6000,
    0.0000,
    32.0000,
    0.0000,
    0.0000;

  BuildingSurface:Detailed,
    ZF1_S Ceiling,
    Ceiling,
    Floor Slab,
    ZF1_S,
    ,
    Adiabatic,
    ,
    ,
    ,
    0.0,
    4,
    0.0000,
    0.0000,
    3.0000,
    32.0000,
    0.0000,
    3.0000,
    32.0000,
    3.6000,
    3.0000,
    0.0000,
    3.6000,
    3.0000;

  BuildingSurface:Detailed,
    ZF1_S Wall_S,
    Wall,
    Ext Wall,
    ZF1_S,
    ,
    Outdoors,
    ,
    SunExposed,
    WindExposed,
    0.0,
    4,
    0.0000,
    0.0000,
    0.0000,
    32.0000,
    0.0000,
    0.0000,
    32.0000,
    0.0000,
    3.0000,
    0.0000,
    0.0000,
    3.0000;

  BuildingSurface:Detailed,
    ZF1_S Wall_N,
    Wall,
    Int Wall,
    ZF1_S,
    ,
    Adiabatic,
    ,
    ,
    ,
    0.0,
    4,
    32.0000,
    3.6000,
    0.0000,
    0.0000,
    3.6000,
    0.0000,
    0.0000,
    3.6000,
    3.0000,
    32.0000,
    3.6000,
    3.0000;

  BuildingSurface:Detailed,
    ZF1_S Wall_W,
    Wall,
    Ext Wall,
    ZF1_S,
    ,
    Outdoors,
    ,
    SunExposed,
    WindExposed,
    0.0,
    4,
    0.0000,
    0.0000,
    0.0000,
    0.0000,
    3.6000,
    0.0000,
    0.0000,
    3.6000,
    3.0000,
    0.0000,
    0.0000,
    3.0000;

  BuildingSurface:Detailed,
    ZF1_S Wall_E,
    Wall,
    Ext Wall,
    ZF1_S,
    ,
    Outdoors,
    ,
    SunExposed,
    WindExposed,
    0.0,
    4,
    32.0000,
    3.6000,
    0.0000,
    32.0000,
    0.0000,
    0.0000,
    32.0000,
    0.0000,
    3.0000,
    32.0000,
    3.6000,
    3.0000;

  BuildingSurface:Detailed,
    ZF1_N Floor,
    Floor,
    Floor Slab,
    ZF1_N,
    ,
    Ground,
    ,
    NoSun,
    NoWind,
    0.0,
    4,
    0.0000,
    10.5500,
    0.0000,
    0.0000,
    14.1500,
    0.0000,
    32.0000,
    14.1500,
    0.0000,
    32.0000,
    10.5500,
    0.0000;

  BuildingSurface:Detailed,
    ZF1_N Ceiling,
    Ceiling,
    Floor Slab,
    ZF1_N,
    ,
    Adiabatic,
    ,
    ,
    ,
    0.0,
    4,
    0.0000,
    10.5500,
    3.0000,
    32.0000,
    10.5500,
    3.0000,
    32.0000,
    14.1500,
    3.0000,
    0.0000,
    14.1500,
    3.0000;

  BuildingSurface:Detailed,
    ZF1_N Wall_S,
    Wall,
    Int Wall,
    ZF1_N,
    ,
    Adiabatic,
    ,
    ,
    ,
    0.0,
    4,
    0.0000,
    10.5500,
    0.0000,
    32.0000,
    10.5500,
    0.0000,
    32.0000,
    10.5500,
    3.0000,
    0.0000,
    10.5500,
    3.0000;

  BuildingSurface:Detailed,
    ZF1_N Wall_N,
    Wall,
    Ext Wall,
    ZF1_N,
    ,
    Outdoors,
    ,
    SunExposed,
    WindExposed,
    0.0,
    4,
    32.0000,
    14.1500,
    0.0000,
    0.0000,
    14.1500,
    0.0000,
    0.0000,
    14.1500,
    3.0000,
    32.0000,
    14.1500,
    3.0000;

  BuildingSurface:Detailed,
    ZF1_N Wall_W,
    Wall,
    Ext Wall,
    ZF1_N,
    ,
    Outdoors,
    ,
    SunExposed,
    WindExposed,
    0.0,
    4,
    0.0000,
    10.5500,
    0.0000,
    0.0000,
    14.1500,
    0.0000,
    0.0000,
    14.1500,
    3.0000,
    0.0000,
    10.5500,
    3.0000;

  BuildingSurface:Detailed,
    ZF1_N Wall_E,
    Wall,
    Ext Wall,
    ZF1_N,
    ,
    Outdoors,
    ,
    SunExposed,
    WindExposed,
    0.0,
    4,
    32.0000,
    14.1500,
    0.0000,
    32.0000,
    10.5500,
    0.0000,
    32.0000,
    10.5500,
    3.0000,
    32.0000,
    14.1500,
    3.0000;

  BuildingSurface:Detailed,
    ZF1_W Floor,
    Floor,
    Floor Slab,
    ZF1_W,
    ,
    Ground,
    ,
    NoSun,
    NoWind,
    0.0,
    4,
    0.0000,
    3.6000,
    0.0000,
    0.0000,
    10.5500,
    0.0000,
    3.6000,
    10.5500,
    0.0000,
    3.6000,
    3.6000,
    0.0000;

  BuildingSurface:Detailed,
    ZF1_W Ceiling,
    Ceiling,
    Floor Slab,
    ZF1_W,
    ,
    Adiabatic,
    ,
    ,
    ,
    0.0,
    4,
    0.0000,
    3.6000,
    3.0000,
    3.6000,
    3.6000,
    3.0000,
    3.6000,
    10.5500,
    3.0000,
    0.0000,
    10.5500,
    3.0000;

  BuildingSurface:Detailed,
    ZF1_W Wall_S,
    Wall,
    Int Wall,
    ZF1_W,
    ,
    Adiabatic,
    ,
    ,
    ,
    0.0,
    4,
    0.0000,
    3.6000,
    0.0000,
    3.6000,
    3.6000,
    0.0000,
    3.6000,
    3.6000,
    3.0000,
    0.0000,
    3.6000,
    3.0000;

  BuildingSurface:Detailed,
    ZF1_W Wall_N,
    Wall,
    Int Wall,
    ZF1_W,
    ,
    Adiabatic,
    ,
    ,
    ,
    0.0,
    4,
    3.6000,
    10.5500,
    0.0000,
    0.0000,
    10.5500,
    0.0000,
    0.0000,
    10.5500,
    3.0000,
    3.6000,
    10.5500,
    3.0000;

  BuildingSurface:Detailed,
    ZF1_W Wall_W,
    Wall,
    Ext Wall,
    ZF1_W,
    ,
    Outdoors,
    ,
    SunExposed,
    WindExposed,
    0.0,
    4,
    0.0000,
    3.6000,
    0.0000,
    0.0000,
    10.5500,
    0.0000,
    0.0000,
    10.5500,
    3.0000,
    0.0000,
    3.6000,
    3.0000;

  BuildingSurface:Detailed,
    ZF1_W Wall_E,
    Wall,
    Int Wall,
    ZF1_W,
    ,
    Adiabatic,
    ,
    ,
    ,
    0.0,
    4,
    3.6000,
    10.5500,
    0.0000,
    3.6000,
    3.6000,
    0.0000,
    3.6000,
    3.6000,
    3.0000,
    3.6000,
    10.5500,
    3.0000;

  BuildingSurface:Detailed,
    ZF1_E Floor,
    Floor,
    Floor Slab,
    ZF1_E,
    ,
    Ground,
    ,
    NoSun,
    NoWind,
    0.0,
    4,
    28.4000,
    3.6000,
    0.0000,
    28.4000,
    10.5500,
    0.0000,
    32.0000,
    10.5500,
    0.0000,
    32.0000,
    3.6000,
    0.0000;

  BuildingSurface:Detailed,
    ZF1_E Ceiling,
    Ceiling,
    Floor Slab,
    ZF1_E,
    ,
    Adiabatic,
    ,
    ,
    ,
    0.0,
    4,
    28.4000,
    3.6000,
    3.0000,
    32.0000,
    3.6000,
    3.0000,
    32.0000,
    10.5500,
    3.0000,
    28.4000,
    10.5500,
    3.0000;

  BuildingSurface:Detailed,
    ZF1_E Wall_S,
    Wall,
    Int Wall,
    ZF1_E,
    ,
    Adiabatic,
    ,
    ,
    ,
    0.0,
    4,
    28.4000,
    3.6000,
    0.0000,
    32.0000,
    3.6000,
    0.0000,
    32.0000,
    3.6000,
    3.0000,
    28.4000,
    3.6000,
    3.0000;

  BuildingSurface:Detailed,
    ZF1_E Wall_N,
    Wall,
    Int Wall,
    ZF1_E,
    ,
    Adiabatic,
    ,
    ,
    ,
    0.0,
    4,
    32.0000,
    10.5500,
    0.0000,
    28.4000,
    10.5500,
    0.0000,
    28.4000,
    10.5500,
    3.0000,
    32.0000,
    10.5500,
    3.0000;

  BuildingSurface:Detailed,
    ZF1_E Wall_W,
    Wall,
    Int Wall,
    ZF1_E,
    ,
    Adiabatic,
    ,
    ,
    ,
    0.0,
    4,
    28.4000,
    3.6000,
    0.0000,
    28.4000,
    10.5500,
    0.0000,
    28.4000,
    10.5500,
    3.0000,
    28.4000,
    3.6000,
    3.0000;

  BuildingSurface:Detailed,
    ZF1_E Wall_E,
    Wall,
    Ext Wall,
    ZF1_E,
    ,
    Outdoors,
    ,
    SunExposed,
    WindExposed,
    0.0,
    4,
    32.0000,
    10.5500,
    0.0000,
    32.0000,
    3.6000,
    0.0000,
    32.0000,
    3.6000,
    3.0000,
    32.0000,
    10.5500,
    3.0000;

  BuildingSurface:Detailed,
    ZF1_C Floor,
    Floor,
    Floor Slab,
    ZF1_C,
    ,
    Ground,
    ,
    NoSun,
    NoWind,
    0.0,
    4,
    3.6000,
    3.6000,
    0.0000,
    3.6000,
    10.5500,
    0.0000,
    28.4000,
    10.5500,
    0.0000,
    28.4000,
    3.6000,
    0.0000;

  BuildingSurface:Detailed,
    ZF1_C Ceiling,
    Ceiling,
    Floor Slab,
    ZF1_C,
    ,
    Adiabatic,
    ,
    ,
    ,
    0.0,
    4,
    3.6000,
    3.6000,
    3.0000,
    28.4000,
    3.6000,
    3.0000,
    28.4000,
    10.5500,
    3.0000,
    3.6000,
    10.5500,
    3.0000;

  BuildingSurface:Detailed,
    ZF1_C Wall_S,
    Wall,
    Int Wall,
    ZF1_C,
    ,
    Adiabatic,
    ,
    ,
    ,
    0.0,
    4,
    3.6000,
    3.6000,
    0.0000,
    28.4000,
    3.6000,
    0.0000,
    28.4000,
    3.6000,
    3.0000,
    3.6000,
    3.6000,
    3.0000;

  BuildingSurface:Detailed,
    ZF1_C Wall_N,
    Wall,
    Int Wall,
    ZF1_C,
    ,
    Adiabatic,
    ,
    ,
    ,
    0.0,
    4,
    28.4000,
    10.5500,
    0.0000,
    3.6000,
    10.5500,
    0.0000,
    3.6000,
    10.5500,
    3.0000,
    28.4000,
    10.5500,
    3.0000;

  BuildingSurface:Detailed,
    ZF1_C Wall_W,
    Wall,
    Int Wall,
    ZF1_C,
    ,
    Adiabatic,
    ,
    ,
    ,
    0.0,
    4,
    3.6000,
    3.6000,
    0.0000,
    3.6000,
    10.5500,
    0.0000,
    3.6000,
    10.5500,
    3.0000,
    3.6000,
    3.6000,
    3.0000;

  BuildingSurface:Detailed,
    ZF1_C Wall_E,
    Wall,
    Int Wall,
    ZF1_C,
    ,
    Adiabatic,
    ,
    ,
    ,
    0.0,
    4,
    28.4000,
    10.5500,
    0.0000,
    28.4000,
    3.6000,
    0.0000,
    28.4000,
    3.6000,
    3.0000,
    28.4000,
    10.5500,
    3.0000;

  BuildingSurface:Detailed,
    ZF2_S Floor,
    Floor,
    Floor Slab,
    ZF2_S,
    ,
    Adiabatic,
    ,
    ,
    ,
    0.0,
    4,
    0.0000,
    0.0000,
    3.0000,
    0.0000,
    3.6000,
    3.0000,
    32.0000,
    3.6000,
    3.0000,
    32.0000,
    0.0000,
    3.0000;

  BuildingSurface:Detailed,
    ZF2_S Ceiling,
    Ceiling,
    Floor Slab,
    ZF2_S,
    ,
    Adiabatic,
    ,
    ,
    ,
    0.0,
    4,
    0.0000,
    0.0000,
    6.0000,
    32.0000,
    0.0000,
    6.0000,
    32.0000,
    3.6000,
    6.0000,
    0.0000,
    3.6000,
    6.0000;

  BuildingSurface:Detailed,
    ZF2_S Wall_S,
    Wall,
    Ext Wall,
    ZF2_S,
    ,
    Outdoors,
    ,
    SunExposed,
    WindExposed,
    0.0,
    4,
    0.0000,
    0.0000,
    3.0000,
    32.0000,
    0.0000,
    3.0000,
    32.0000,
    0.0000,
    6.0000,
    0.0000,
    0.0000,
    6.0000;

  BuildingSurface:Detailed,
    ZF2_S Wall_N,
    Wall,
    Int Wall,
    ZF2_S,
    ,
    Adiabatic,
    ,
    ,
    ,
    0.0,
    4,
    32.0000,
    3.6000,
    3.0000,
    0.0000,
    3.6000,
    3.0000,
    0.0000,
    3.6000,
    6.0000,
    32.0000,
    3.6000,
    6.0000;

  BuildingSurface:Detailed,
    ZF2_S Wall_W,
    Wall,
    Ext Wall,
    ZF2_S,
    ,
    Outdoors,
    ,
    SunExposed,
    WindExposed,
    0.0,
    4,
    0.0000,
    0.0000,
    3.0000,
    0.0000,
    3.6000,
    3.0000,
    0.0000,
    3.6000,
    6.0000,
    0.0000,
    0.0000,
    6.0000;

  BuildingSurface:Detailed,
    ZF2_S Wall_E,
    Wall,
    Ext Wall,
    ZF2_S,
    ,
    Outdoors,
    ,
    SunExposed,
    WindExposed,
    0.0,
    4,
    32.0000,
    3.6000,
    3.0000,
    32.0000,
    0.0000,
    3.0000,
    32.0000,
    0.0000,
    6.0000,
    32.0000,
    3.6000,
    6.0000;

  BuildingSurface:Detailed,
    ZF2_N Floor,
    Floor,
    Floor Slab,
    ZF2_N,
    ,
    Adiabatic,
    ,
    ,
    ,
    0.0,
    4,
    0.0000,
    10.5500,
    3.0000,
    0.0000,
    14.1500,
    3.0000,
    32.0000,
    14.1500,
    3.0000,
    32.0000,
    10.5500,
    3.0000;

  BuildingSurface:Detailed,
    ZF2_N Ceiling,
    Ceiling,
    Floor Slab,
    ZF2_N,
    ,
    Adiabatic,
    ,
    ,
    ,
    0.0,
    4,
    0.0000,
    10.5500,
    6.0000,
    32.0000,
    10.5500,
    6.0000,
    32.0000,
    14.1500,
    6.0000,
    0.0000,
    14.1500,
    6.0000;

  BuildingSurface:Detailed,
    ZF2_N Wall_S,
    Wall,
    Int Wall,
    ZF2_N,
    ,
    Adiabatic,
    ,
    ,
    ,
    0.0,
    4,
    0.0000,
    10.5500,
    3.0000,
    32.0000,
    10.5500,
    3.0000,
    32.0000,
    10.5500,
    6.0000,
    0.0000,
    10.5500,
    6.0000;

  BuildingSurface:Detailed,
    ZF2_N Wall_N,
    Wall,
    Ext Wall,
    ZF2_N,
    ,
    Outdoors,
    ,
    SunExposed,
    WindExposed,
    0.0,
    4,
    32.0000,
    14.1500,
    3.0000,
    0.0000,
    14.1500,
    3.0000,
    0.0000,
    14.1500,
    6.0000,
    32.0000,
    14.1500,
    6.0000;

  BuildingSurface:Detailed,
    ZF2_N Wall_W,
    Wall,
    Ext Wall,
    ZF2_N,
    ,
    Outdoors,
    ,
    SunExposed,
    WindExposed,
    0.0,
    4,
    0.0000,
    10.5500,
    3.0000,
    0.0000,
    14.1500,
    3.0000,
    0.0000,
    14.1500,
    6.0000,
    0.0000,
    10.5500,
    6.0000;

  BuildingSurface:Detailed,
    ZF2_N Wall_E,
    Wall,
    Ext Wall,
    ZF2_N,
    ,
    Outdoors,
    ,
    SunExposed,
    WindExposed,
    0.0,
    4,
    32.0000,
    14.1500,
    3.0000,
    32.0000,
    10.5500,
    3.0000,
    32.0000,
    10.5500,
    6.0000,
    32.0000,
    14.1500,
    6.0000;

  BuildingSurface:Detailed,
    ZF2_W Floor,
    Floor,
    Floor Slab,
    ZF2_W,
    ,
    Adiabatic,
    ,
    ,
    ,
    0.0,
    4,
    0.0000,
    3.6000,
    3.0000,
    0.0000,
    10.5500,
    3.0000,
    3.6000,
    10.5500,
    3.0000,
    3.6000,
    3.6000,
    3.0000;

  BuildingSurface:Detailed,
    ZF2_W Ceiling,
    Ceiling,
    Floor Slab,
    ZF2_W,
    ,
    Adiabatic,
    ,
    ,
    ,
    0.0,
    4,
    0.0000,
    3.6000,
    6.0000,
    3.6000,
    3.6000,
    6.0000,
    3.6000,
    10.5500,
    6.0000,
    0.0000,
    10.5500,
    6.0000;

  BuildingSurface:Detailed,
    ZF2_W Wall_S,
    Wall,
    Int Wall,
    ZF2_W,
    ,
    Adiabatic,
    ,
    ,
    ,
    0.0,
    4,
    0.0000,
    3.6000,
    3.0000,
    3.6000,
    3.6000,
    3.0000,
    3.6000,
    3.6000,
    6.0000,
    0.0000,
    3.6000,
    6.0000;

  BuildingSurface:Detailed,
    ZF2_W Wall_N,
    Wall,
    Int Wall,
    ZF2_W,
    ,
    Adiabatic,
    ,
    ,
    ,
    0.0,
    4,
    3.6000,
    10.5500,
    3.0000,
    0.0000,
    10.5500,
    3.0000,
    0.0000,
    10.5500,
    6.0000,
    3.6000,
    10.5500,
    6.0000;

  BuildingSurface:Detailed,
    ZF2_W Wall_W,
    Wall,
    Ext Wall,
    ZF2_W,
    ,
    Outdoors,
    ,
    SunExposed,
    WindExposed,
    0.0,
    4,
    0.0000,
    3.6000,
    3.0000,
    0.0000,
    10.5500,
    3.0000,
    0.0000,
    10.5500,
    6.0000,
    0.0000,
    3.6000,
    6.0000;

  BuildingSurface:Detailed,
    ZF2_W Wall_E,
    Wall,
    Int Wall,
    ZF2_W,
    ,
    Adiabatic,
    ,
    ,
    ,
    0.0,
    4,
    3.6000,
    10.5500,
    3.0000,
    3.6000,
    3.6000,
    3.0000,
    3.6000,
    3.6000,
    6.0000,
    3.6000,
    10.5500,
    6.0000;

  BuildingSurface:Detailed,
    ZF2_E Floor,
    Floor,
    Floor Slab,
    ZF2_E,
    ,
    Adiabatic,
    ,
    ,
    ,
    0.0,
    4,
    28.4000,
    3.6000,
    3.0000,
    28.4000,
    10.5500,
    3.0000,
    32.0000,
    10.5500,
    3.0000,
    32.0000,
    3.6000,
    3.0000;

  BuildingSurface:Detailed,
    ZF2_E Ceiling,
    Ceiling,
    Floor Slab,
    ZF2_E,
    ,
    Adiabatic,
    ,
    ,
    ,
    0.0,
    4,
    28.4000,
    3.6000,
    6.0000,
    32.0000,
    3.6000,
    6.0000,
    32.0000,
    10.5500,
    6.0000,
    28.4000,
    10.5500,
    6.0000;

  BuildingSurface:Detailed,
    ZF2_E Wall_S,
    Wall,
    Int Wall,
    ZF2_E,
    ,
    Adiabatic,
    ,
    ,
    ,
    0.0,
    4,
    28.4000,
    3.6000,
    3.0000,
    32.0000,
    3.6000,
    3.0000,
    32.0000,
    3.6000,
    6.0000,
    28.4000,
    3.6000,
    6.0000;

  BuildingSurface:Detailed,
    ZF2_E Wall_N,
    Wall,
    Int Wall,
    ZF2_E,
    ,
    Adiabatic,
    ,
    ,
    ,
    0.0,
    4,
    32.0000,
    10.5500,
    3.0000,
    28.4000,
    10.5500,
    3.0000,
    28.4000,
    10.5500,
    6.0000,
    32.0000,
    10.5500,
    6.0000;

  BuildingSurface:Detailed,
    ZF2_E Wall_W,
    Wall,
    Int Wall,
    ZF2_E,
    ,
    Adiabatic,
    ,
    ,
    ,
    0.0,
    4,
    28.4000,
    3.6000,
    3.0000,
    28.4000,
    10.5500,
    3.0000,
    28.4000,
    10.5500,
    6.0000,
    28.4000,
    3.6000,
    6.0000;

  BuildingSurface:Detailed,
    ZF2_E Wall_E,
    Wall,
    Ext Wall,
    ZF2_E,
    ,
    Outdoors,
    ,
    SunExposed,
    WindExposed,
    0.0,
    4,
    32.0000,
    10.5500,
    3.0000,
    32.0000,
    3.6000,
    3.0000,
    32.0000,
    3.6000,
    6.0000,
    32.0000,
    10.5500,
    6.0000;

  BuildingSurface:Detailed,
    ZF2_C Floor,
    Floor,
    Floor Slab,
    ZF2_C,
    ,
    Adiabatic,
    ,
    ,
    ,
    0.0,
    4,
    3.6000,
    3.6000,
    3.0000,
    3.6000,
    10.5500,
    3.0000,
    28.4000,
    10.5500,
    3.0000,
    28.4000,
    3.6000,
    3.0000;

  BuildingSurface:Detailed,
    ZF2_C Ceiling,
    Ceiling,
    Floor Slab,
    ZF2_C,
    ,
    Adiabatic,
    ,
    ,
    ,
    0.0,
    4,
    3.6000,
    3.6000,
    6.0000,
    28.4000,
    3.6000,
    6.0000,
    28.4000,
    10.5500,
    6.0000,
    3.6000,
    10.5500,
    6.0000;

  BuildingSurface:Detailed,
    ZF2_C Wall_S,
    Wall,
    Int Wall,
    ZF2_C,
    ,
    Adiabatic,
    ,
    ,
    ,
    0.0,
    4,
    3.6000,
    3.6000,
    3.0000,
    28.4000,
    3.6000,
    3.0000,
    28.4000,
    3.6000,
    6.0000,
    3.6000,
    3.6000,
    6.0000;

  BuildingSurface:Detailed,
    ZF2_C Wall_N,
    Wall,
    Int Wall,
    ZF2_C,
    ,
    Adiabatic,
    ,
    ,
    ,
    0.0,
    4,
    28.4000,
    10.5500,
    3.0000,
    3.6000,
    10.5500,
    3.0000,
    3.6000,
    10.5500,
    6.0000,
    28.4000,
    10.5500,
    6.0000;

  BuildingSurface:Detailed,
    ZF2_C Wall_W,
    Wall,
    Int Wall,
    ZF2_C,
    ,
    Adiabatic,
    ,
    ,
    ,
    0.0,
    4,
    3.6000,
    3.6000,
    3.0000,
    3.6000,
    10.5500,
    3.0000,
    3.6000,
    10.5500,
    6.0000,
    3.6000,
    3.6000,
    6.0000;

  BuildingSurface:Detailed,
    ZF2_C Wall_E,
    Wall,
    Int Wall,
    ZF2_C,
    ,
    Adiabatic,
    ,
    ,
    ,
    0.0,
    4,
    28.4000,
    10.5500,
    3.0000,
    28.4000,
    3.6000,
    3.0000,
    28.4000,
    3.6000,
    6.0000,
    28.4000,
    10.5500,
    6.0000;

  BuildingSurface:Detailed,
    ZF3_S Floor,
    Floor,
    Floor Slab,
    ZF3_S,
    ,
    Adiabatic,
    ,
    ,
    ,
    0.0,
    4,
    0.0000,
    0.0000,
    6.0000,
    0.0000,
    3.6000,
    6.0000,
    32.0000,
    3.6000,
    6.0000,
    32.0000,
    0.0000,
    6.0000;

  BuildingSurface:Detailed,
    ZF3_S Roof,
    Roof,
    Roof,
    ZF3_S,
    ,
    Outdoors,
    ,
    SunExposed,
    WindExposed,
    0.0,
    4,
    0.0000,
    0.0000,
    9.0000,
    32.0000,
    0.0000,
    9.0000,
    32.0000,
    3.6000,
    9.0000,
    0.0000,
    3.6000,
    9.0000;

  BuildingSurface:Detailed,
    ZF3_S Wall_S,
    Wall,
    Ext Wall,
    ZF3_S,
    ,
    Outdoors,
    ,
    SunExposed,
    WindExposed,
    0.0,
    4,
    0.0000,
    0.0000,
    6.0000,
    32.0000,
    0.0000,
    6.0000,
    32.0000,
    0.0000,
    9.0000,
    0.0000,
    0.0000,
    9.0000;

  BuildingSurface:Detailed,
    ZF3_S Wall_N,
    Wall,
    Int Wall,
    ZF3_S,
    ,
    Adiabatic,
    ,
    ,
    ,
    0.0,
    4,
    32.0000,
    3.6000,
    6.0000,
    0.0000,
    3.6000,
    6.0000,
    0.0000,
    3.6000,
    9.0000,
    32.0000,
    3.6000,
    9.0000;

  BuildingSurface:Detailed,
    ZF3_S Wall_W,
    Wall,
    Ext Wall,
    ZF3_S,
    ,
    Outdoors,
    ,
    SunExposed,
    WindExposed,
    0.0,
    4,
    0.0000,
    0.0000,
    6.0000,
    0.0000,
    3.6000,
    6.0000,
    0.0000,
    3.6000,
    9.0000,
    0.0000,
    0.0000,
    9.0000;

  BuildingSurface:Detailed,
    ZF3_S Wall_E,
    Wall,
    Ext Wall,
    ZF3_S,
    ,
    Outdoors,
    ,
    SunExposed,
    WindExposed,
    0.0,
    4,
    32.0000,
    3.6000,
    6.0000,
    32.0000,
    0.0000,
    6.0000,
    32.0000,
    0.0000,
    9.0000,
    32.0000,
    3.6000,
    9.0000;

  BuildingSurface:Detailed,
    ZF3_N Floor,
    Floor,
    Floor Slab,
    ZF3_N,
    ,
    Adiabatic,
    ,
    ,
    ,
    0.0,
    4,
    0.0000,
    10.5500,
    6.0000,
    0.0000,
    14.1500,
    6.0000,
    32.0000,
    14.1500,
    6.0000,
    32.0000,
    10.5500,
    6.0000;

  BuildingSurface:Detailed,
    ZF3_N Roof,
    Roof,
    Roof,
    ZF3_N,
    ,
    Outdoors,
    ,
    SunExposed,
    WindExposed,
    0.0,
    4,
    0.0000,
    10.5500,
    9.0000,
    32.0000,
    10.5500,
    9.0000,
    32.0000,
    14.1500,
    9.0000,
    0.0000,
    14.1500,
    9.0000;

  BuildingSurface:Detailed,
    ZF3_N Wall_S,
    Wall,
    Int Wall,
    ZF3_N,
    ,
    Adiabatic,
    ,
    ,
    ,
    0.0,
    4,
    0.0000,
    10.5500,
    6.0000,
    32.0000,
    10.5500,
    6.0000,
    32.0000,
    10.5500,
    9.0000,
    0.0000,
    10.5500,
    9.0000;

  BuildingSurface:Detailed,
    ZF3_N Wall_N,
    Wall,
    Ext Wall,
    ZF3_N,
    ,
    Outdoors,
    ,
    SunExposed,
    WindExposed,
    0.0,
    4,
    32.0000,
    14.1500,
    6.0000,
    0.0000,
    14.1500,
    6.0000,
    0.0000,
    14.1500,
    9.0000,
    32.0000,
    14.1500,
    9.0000;

  BuildingSurface:Detailed,
    ZF3_N Wall_W,
    Wall,
    Ext Wall,
    ZF3_N,
    ,
    Outdoors,
    ,
    SunExposed,
    WindExposed,
    0.0,
    4,
    0.0000,
    10.5500,
    6.0000,
    0.0000,
    14.1500,
    6.0000,
    0.0000,
    14.1500,
    9.0000,
    0.0000,
    10.5500,
    9.0000;

  BuildingSurface:Detailed,
    ZF3_N Wall_E,
    Wall,
    Ext Wall,
    ZF3_N,
    ,
    Outdoors,
    ,
    SunExposed,
    WindExposed,
    0.0,
    4,
    32.0000,
    14.1500,
    6.0000,
    32.0000,
    10.5500,
    6.0000,
    32.0000,
    10.5500,
    9.0000,
    32.0000,
    14.1500,
    9.0000;

  BuildingSurface:Detailed,
    ZF3_W Floor,
    Floor,
    Floor Slab,
    ZF3_W,
    ,
    Adiabatic,
    ,
    ,
    ,
    0.0,
    4,
    0.0000,
    3.6000,
    6.0000,
    0.0000,
    10.5500,
    6.0000,
    3.6000,
    10.5500,
    6.0000,
    3.6000,
    3.6000,
    6.0000;

  BuildingSurface:Detailed,
    ZF3_W Roof,
    Roof,
    Roof,
    ZF3_W,
    ,
    Outdoors,
    ,
    SunExposed,
    WindExposed,
    0.0,
    4,
    0.0000,
    3.6000,
    9.0000,
    3.6000,
    3.6000,
    9.0000,
    3.6000,
    10.5500,
    9.0000,
    0.0000,
    10.5500,
    9.0000;

  BuildingSurface:Detailed,
    ZF3_W Wall_S,
    Wall,
    Int Wall,
    ZF3_W,
    ,
    Adiabatic,
    ,
    ,
    ,
    0.0,
    4,
    0.0000,
    3.6000,
    6.0000,
    3.6000,
    3.6000,
    6.0000,
    3.6000,
    3.6000,
    9.0000,
    0.0000,
    3.6000,
    9.0000;

  BuildingSurface:Detailed,
    ZF3_W Wall_N,
    Wall,
    Int Wall,
    ZF3_W,
    ,
    Adiabatic,
    ,
    ,
    ,
    0.0,
    4,
    3.6000,
    10.5500,
    6.0000,
    0.0000,
    10.5500,
    6.0000,
    0.0000,
    10.5500,
    9.0000,
    3.6000,
    10.5500,
    9.0000;

  BuildingSurface:Detailed,
    ZF3_W Wall_W,
    Wall,
    Ext Wall,
    ZF3_W,
    ,
    Outdoors,
    ,
    SunExposed,
    WindExposed,
    0.0,
    4,
    0.0000,
    3.6000,
    6.0000,
    0.0000,
    10.5500,
    6.0000,
    0.0000,
    10.5500,
    9.0000,
    0.0000,
    3.6000,
    9.0000;

  BuildingSurface:Detailed,
    ZF3_W Wall_E,
    Wall,
    Int Wall,
    ZF3_W,
    ,
    Adiabatic,
    ,
    ,
    ,
    0.0,
    4,
    3.6000,
    10.5500,
    6.0000,
    3.6000,
    3.6000,
    6.0000,
    3.6000,
    3.6000,
    9.0000,
    3.6000,
    10.5500,
    9.0000;

  BuildingSurface:Detailed,
    ZF3_E Floor,
    Floor,
    Floor Slab,
    ZF3_E,
    ,
    Adiabatic,
    ,
    ,
    ,
    0.0,
    4,
    28.4000,
    3.6000,
    6.0000,
    28.4000,
    10.5500,
    6.0000,
    32.0000,
    10.5500,
    6.0000,
    32.0000,
    3.6000,
    6.0000;

  BuildingSurface:Detailed,
    ZF3_E Roof,
    Roof,
    Roof,
    ZF3_E,
    ,
    Outdoors,
    ,
    SunExposed,
    WindExposed,
    0.0,
    4,
    28.4000,
    3.6000,
    9.0000,
    32.0000,
    3.6000,
    9.0000,
    32.0000,
    10.5500,
    9.0000,
    28.4000,
    10.5500,
    9.0000;

  BuildingSurface:Detailed,
    ZF3_E Wall_S,
    Wall,
    Int Wall,
    ZF3_E,
    ,
    Adiabatic,
    ,
    ,
    ,
    0.0,
    4,
    28.4000,
    3.6000,
    6.0000,
    32.0000,
    3.6000,
    6.0000,
    32.0000,
    3.6000,
    9.0000,
    28.4000,
    3.6000,
    9.0000;

  BuildingSurface:Detailed,
    ZF3_E Wall_N,
    Wall,
    Int Wall,
    ZF3_E,
    ,
    Adiabatic,
    ,
    ,
    ,
    0.0,
    4,
    32.0000,
    10.5500,
    6.0000,