  Version,
    23.2;

  SimulationControl,
    YES,
    YES,
    NO,
    YES,
    YES,
    No,
    1;

  Building,
    Tianjin Medium Office VRF Pilot,
    0.0000,
    City,
    0.0400,
    0.2000,
    FullInteriorAndExterior,
    25,
    6;

  RunPeriod,
    annual,
    1,
    1,
    ,
    12,
    31,
    ,
    Sunday,
    No,
    No,
    No,
    Yes,
    Yes;

  ScheduleTypeLimits,
    Any Number;

  ScheduleTypeLimits,
    Fraction,
    0.0,
    1.0,
    CONTINUOUS;

  ScheduleTypeLimits,
    Temperature,
    -60,
    200,
    CONTINUOUS;

  ScheduleTypeLimits,
    On/Off,
    0,
    1,
    DISCRETE;

  ScheduleTypeLimits,
    Control Type,
    0,
    4,
    DISCRETE;

  ScheduleTypeLimits,
    Humidity,
    10,
    90,
    CONTINUOUS;

  ScheduleTypeLimits,
    Number;

  Schedule:Compact,
    ALWAYS_ON,
    On/Off,
    Through: 12/31,
    For: AllDays,
    Until: 24:00,
    1;

  SurfaceConvectionAlgorithm:Inside,
    TARP;

  SurfaceConvectionAlgorithm:Outside,
    DOE-2;

  HeatBalanceAlgorithm,
    ConductionTransferFunction,
    200.0000;

  ZoneAirHeatBalanceAlgorithm,
    AnalyticalSolution;

  Sizing:Parameters,
    1.33,
    1.33,
    6;

  ConvergenceLimits,
    2,
    25;

  ShadowCalculation,
    PolygonClipping,
    Periodic,
    7,
    15000;

  Timestep,
    6;

  Site:WaterMainsTemperature,
    CORRELATION,
    ,
    9.69,
    28.10;

  Site:GroundTemperature:BuildingSurface,
    19.527,
    19.502,
    19.536,
    19.598,
    20.002,
    21.640,
    22.225,
    22.375,
    21.449,
    20.121,
    19.802,
    19.633;

  Construction,
    Steel Frame Non-res Ext Wall,
    Wood Siding,
    Steel Frame NonRes Wall Insulation,
    1/2IN Gypsum;

  Material,
    Steel Frame NonRes Wall Insulation,
    MediumRough,
    0.0870564552646045,
    0.049,
    265.0000,
    836.8000,
    0.9000,
    0.7000,
    0.7000;

  Construction,
    IEAD Non-res Roof,
    Roof Membrane,
    IEAD NonRes Roof Insulation,
    Metal Decking;

  Material,
    IEAD NonRes Roof Insulation,
    MediumRough,
    0.127338688569477,
    0.049,
    265.0000,
    836.8000,
    0.9000,
    0.7000,
    0.7000;

  Construction,
    ext-slab,
    HW CONCRETE,
    CP02 CARPET PAD;

  Construction,
    int-walls,
    1/2IN Gypsum,
    1/2IN Gypsum;

  Construction,
    INT-FLOOR-TOPSIDE,
    MAT-CC05 4 HW CONCRETE,
    CP02 CARPET PAD;

  Construction,
    INT-FLOOR-UNDERSIDE,
    CP02 CARPET PAD,
    MAT-CC05 4 HW CONCRETE;

  Construction,
    Window Non-res Fixed,
    NonRes Fixed Assembly Window;

  WindowMaterial:SimpleGlazingSystem,
    NonRes Fixed Assembly Window,
    3.23646,
    0.39,
    ;

  Construction,
    DropCeiling,
    Std AC02;

  Construction,
    InteriorFurnishings,
    Std Wood 6inch;

  Material,
    Std Wood 6inch,
    MediumSmooth,
    0.15,
    0.12,
    540.0000,
    1210,
    0.9000000,
    0.7000000,
    0.7000000;

  Material,
    Wood Siding,
    MediumSmooth,
    0.0100,
    0.1100,
    544.6200,
    1210.0000,
    0.9000,
    0.7800,
    0.7800;

  Material,
    1/2IN Gypsum,
    Smooth,
    0.0127,
    0.1600,
    784.9000,
    830.0000,
    0.9000,
    0.9200,
    0.9200;

  Material,
    1IN Stucco,
    Smooth,
    0.0253,
    0.6918,
    1858.0000,
    837.0000,
    0.9000,
    0.9200,
    0.9200;

  Material,
    8IN CONCRETE HW,
    Rough,
    0.2032,
    1.3110,
    2240.0000,
    836.8000,
    0.9000,
    0.7000,
    0.7000;

  Material,
    Metal Siding,
    Smooth,
    0.0015,
    44.9600,
    7688.8600,
    410.0000,
    0.9000,
    0.2000,
    0.2000;

  Material,
    HW CONCRETE,
    Rough,
    0.1016,
    1.3110,
    2240.0000,
    836.8000,
    0.9000,
    0.7000,
    0.7000;

  Material:NoMass,
    CP02 CARPET PAD,
    VeryRough,
    0.2165,
    0.9000,
    0.7000,
    0.8000;

  Material,
    Roof Membrane,
    VeryRough,
    0.0095,
    0.1600,
    1121.2900,
    1460.0000,
    0.9000,
    0.7000,
    0.7000;

  Material,
    Metal Decking,
    MediumSmooth,
    0.0015,
    45.0060,
    7680.0000,
    418.4000,
    0.9000,
    0.7000,
    0.3000;

  Material,
    Metal Roofing,
    MediumSmooth,
    0.0015,
    45.0060,
    7680.0000,
    418.4000,
    0.9000,
    0.7000,
    0.3000;

  Material,
    MAT-CC05 4 HW CONCRETE,
    Rough,
    0.1016,
    1.3110,
    2240.0000,
    836.8000,
    0.9000,
    0.7000,
    0.7000;

  Material,
    Std AC02,
    MediumSmooth,
    1.2700000E-02,
    5.7000000E-02,
    288.0000,
    1339.000,
    0.9000000,
    0.7000000,
    0.2000000;

  Material:NoMass,
    MAT-AIR-WALL,
    Rough,
    0.2079491,
    0.9,
    0.7;

  Zone,
    Core_bottom,
    0.0000,
    0.0000,
    0.0000,
    0.0000,
    1,
    1,
    ,
    ,
    autocalculate,
    ,
    ,
    Yes;

  Zone,
    Core_mid,
    0.0000,
    0.0000,
    0.0000,
    0.0000,
    1,
    1,
    ,
    ,
    autocalculate,
    ,
    ,
    Yes;

  Zone,
    Core_top,
    0.0000,
    0.0000,
    0.0000,
    0.0000,
    1,
    1,
    ,
    ,
    autocalculate,
    ,
    ,
    Yes;

  Zone,
    FirstFloor_Plenum,
    0.0000,
    0.0000,
    0.0000,
    0.0000,
    1,
    1,
    ,
    ,
    autocalculate,
    ,
    ,
    No;

  Zone,
    MidFloor_Plenum,
    0.0000,
    0.0000,
    0.0000,
    0.0000,
    1,
    1,
    ,
    ,
    autocalculate,
    ,
    ,
    No;

  Zone,
    Perimeter_bot_ZN_1,
    0.0000,
    0.0000,
    0.0000,
    0.0000,
    1,
    1,
    ,
    ,
    autocalculate,
    ,
    ,
    Yes;

  Zone,
    Perimeter_bot_ZN_2,
    0.0000,
    0.0000,
    0.0000,
    0.0000,
    1,
    1,
    ,
    ,
    autocalculate,
    ,
    ,
    Yes;

  Zone,
    Perimeter_bot_ZN_3,
    0.0000,
    0.0000,
    0.0000,
    0.0000,
    1,
    1,
    ,
    ,
    autocalculate,
    ,
    ,
    Yes;

  Zone,
    Perimeter_bot_ZN_4,
    0.0000,
    0.0000,
    0.0000,
    0.0000,
    1,
    1,
    ,
    ,
    autocalculate,
    ,
    ,
    Yes;

  Zone,
    Perimeter_mid_ZN_1,
    0.0000,
    0.0000,
    0.0000,
    0.0000,
    1,
    1,
    ,
    ,
    autocalculate,
    ,
    ,
    Yes;

  Zone,
    Perimeter_mid_ZN_2,
    0.0000,
    0.0000,
    0.0000,
    0.0000,
    1,
    1,
    ,
    ,
    autocalculate,
    ,
    ,
    Yes;

  Zone,
    Perimeter_mid_ZN_3,
    0.0000,
    0.0000,
    0.0000,
    0.0000,
    1,
    1,
    ,
    ,
    autocalculate,
    ,
    ,
    Yes;

  Zone,
    Perimeter_mid_ZN_4,
    0.0000,
    0.0000,
    0.0000,
    0.0000,
    1,
    1,
    ,
    ,
    autocalculate,
    ,
    ,
    Yes;

  Zone,
    Perimeter_top_ZN_1,
    0.0000,
    0.0000,
    0.0000,
    0.0000,
    1,
    1,
    ,
    ,
    autocalculate,
    ,
    ,
    Yes;

  Zone,
    Perimeter_top_ZN_2,
    0.0000,
    0.0000,
    0.0000,
    0.0000,
    1,
    1,
    ,
    ,
    autocalculate,
    ,
    ,
    Yes;

  Zone,
    Perimeter_top_ZN_3,
    0.0000,
    0.0000,
    0.0000,
    0.0000,
    1,
    1,
    ,
    ,
    autocalculate,
    ,
    ,
    Yes;

  Zone,
    Perimeter_top_ZN_4,
    0.0000,
    0.0000,
    0.0000,
    0.0000,
    1,
    1,
    ,
    ,
    autocalculate,
    ,
    ,
    Yes;

  Zone,
    TopFloor_Plenum,
    0.0000,
    0.0000,
    0.0000,
    0.0000,
    1,
    1,
    ,
    ,
    autocalculate,
    ,
    ,
    No;

  BuildingSurface:Detailed,
    Building_Roof,
    Roof,
    IEAD Non-res Roof,
    TopFloor_Plenum,
    ,
    Outdoors,
    ,
    SunExposed,
    WindExposed,
    AutoCalculate,
    4,
    49.9110,
    0.0000,
    11.8872,
    49.9110,
    33.2738,
    11.8872,
    0.0000,
    33.2738,
    11.8872,
    0.0000,
    0.0000,
    11.8872;

  BuildingSurface:Detailed,
    Core_bot_ZN_5_Floor,
    Floor,
    ext-slab,
    Core_bottom,
    ,
    Ground,
    ,
    NoSun,
    NoWind,
    AutoCalculate,
    4,
    45.3375,
    28.7006,
    0.0000,
    45.3375,
    4.5732,
    0.0000,
    4.5732,
    4.5732,
    0.0000,
    4.5732,
    28.7006,
    0.0000;

  BuildingSurface:Detailed,
    Core_bot_ZN_5_Wall_East,
    Wall,
    int-walls,
    Core_bottom,
    ,
    Surface,
    Perimeter_bot_ZN_2_Wall_West,
    NoSun,
    NoWind,
    AutoCalculate,
    4,
    45.3375,
    4.5732,
    2.7432,
    45.3375,
    4.5732,
    0.0000,
    45.3375,
    28.7006,
    0.0000,
    45.3375,
    28.7006,
    2.7432;

  BuildingSurface:Detailed,
    Core_bot_ZN_5_Wall_North,
    Wall,
    int-walls,
    Core_bottom,
    ,
    Surface,
    Perimeter_bot_ZN_3_Wall_South,
    NoSun,
    NoWind,
    AutoCalculate,
    4,
    45.3375,
    28.7006,
    2.7432,
    45.3375,
    28.7006,
    0.0000,
    4.5732,
    28.7006,
    0.0000,
    4.5732,
    28.7006,
    2.7432;

  BuildingSurface:Detailed,
    Core_bot_ZN_5_Wall_South,
    Wall,
    int-walls,
    Core_bottom,
    ,
    Surface,
    Perimeter_bot_ZN_1_Wall_North,
    NoSun,
    NoWind,
    AutoCalculate,
    4,
    4.5732,
    4.5732,
    2.7432,
    4.5732,
    4.5732,
    0.0000,
    45.3375,
    4.5732,
    0.0000,
    45.3375,
    4.5732,
    2.7432;

  BuildingSurface:Detailed,
    Core_bot_ZN_5_Wall_West,
    Wall,
    int-walls,
    Core_bottom,
    ,
    Surface,
    Perimeter_bot_ZN_4_Wall_East,
    NoSun,
    NoWind,
    AutoCalculate,
    4,
    4.5732,
    28.7006,
    2.7432,
    4.5732,
    28.7006,
    0.0000,
    4.5732,
    4.5732,
    0.0000,
    4.5732,
    4.5732,
    2.7432;

  BuildingSurface:Detailed,
    Core_bottom_ceiling,
    Ceiling,
    DropCeiling,
    Core_bottom,
    ,
    Surface,
    FirstFloor_Plenum_Floor_5,
    NoSun,
    NoWind,
    AutoCalculate,
    4,
    45.3375,
    4.5732,
    2.7432,
    45.3375,
    28.7006,
    2.7432,
    4.5732,
    28.7006,
    2.7432,
    4.5732,
    4.5732,
    2.7432;

  BuildingSurface:Detailed,
    Core_mid_ZN_5_Floor,
    Floor,
    INT-FLOOR-TOPSIDE,
    Core_mid,
    ,
    Surface,
    FirstFloor_Plenum_Ceiling_5,
    NoSun,
    NoWind,
    AutoCalculate,
    4,
    4.5732,
    4.5732,
    3.9624,
    4.5732,
    28.7006,
    3.9624,
    45.3375,
    28.7006,
    3.9624,
    45.3375,
    4.5732,
    3.9624;

  BuildingSurface:Detailed,
    Core_mid_ZN_5_Wall_East,
    Wall,
    int-walls,
    Core_mid,
    ,
    Surface,
    Perimeter_mid_ZN_2_Wall_West,
    NoSun,
    NoWind,
    AutoCalculate,
    4,
    45.3375,
    4.5732,
    6.7056,
    45.3375,
    4.5732,
    3.9624,
    45.3375,
    28.7006,
    3.9624,
    45.3375,
    28.7006,
    6.7056;

  BuildingSurface:Detailed,
    Core_mid_ZN_5_Wall_North,
    Wall,
    int-walls,
    Core_mid,
    ,
    Surface,
    Perimeter_mid_ZN_3_Wall_South,
    NoSun,
    NoWind,
    AutoCalculate,
    4,
    45.3375,
    28.7006,
    6.7056,
    45.3375,
    28.7006,
    3.9624,
    4.5732,
    28.7006,
    3.9624,
    4.5732,
    28.7006,
    6.7056;

  BuildingSurface:Detailed,
    Core_mid_ZN_5_Wall_South,
    Wall,
    int-walls,
    Core_mid,
    ,
    Surface,
    Perimeter_mid_ZN_1_Wall_North,
    NoSun,
    NoWind,
    AutoCalculate,
    4,
    4.5732,
    4.5732,
    6.7056,
    4.5732,
    4.5732,
    3.9624,
    45.3375,
    4.5732,
    3.9624,
    45.3375,
    4.5732,
    6.7056;

  BuildingSurface:Detailed,
    Core_mid_ZN_5_Wall_West,
    Wall,
    int-walls,
    Core_mid,
    ,
    Surface,
    Perimeter_mid_ZN_4_Wall_East,
    NoSun,
    NoWind,
    AutoCalculate,
    4,
    4.5732,
    28.7006,
    6.7056,
    4.5732,
    28.7006,
    3.9624,
    4.5732,
    4.5732,
    3.9624,
    4.5732,
    4.5732,
    6.7056;

  BuildingSurface:Detailed,
    Core_mid_ceiling,
    Ceiling,
    DropCeiling,
    Core_mid,
    ,
    Surface,
    MidFloor_Plenum_Floor_5,
    NoSun,
    NoWind,
    AutoCalculate,
    4,
    4.5732,
    28.7006,
    6.7056,
    4.5732,
    4.5732,
    6.7056,
    45.3375,
    4.5732,
    6.7056,
    45.3375,
    28.7006,
    6.7056;

  BuildingSurface:Detailed,
    Core_top_ZN_5_Ceiling,
    Ceiling,
    DropCeiling,
    Core_top,
    ,
    Surface,
    TopFloor_Plenum_Floor_5,
    NoSun,
    NoWind,
    AutoCalculate,
    4,
    45.3375,
    4.5732,
    10.6680,
    45.3375,
    28.7006,
    10.6680,
    4.5732,
    28.7006,
    10.6680,
    4.5732,
    4.5732,
    10.6680;

  BuildingSurface:Detailed,
    Core_top_ZN_5_Floor,
    Floor,
    INT-FLOOR-TOPSIDE,
    Core_top,
    ,
    Surface,
    MidFloor_Plenum_Ceiling_5,
    NoSun,
    NoWind,
    AutoCalculate,
    4,
    45.3375,
    28.7006,
    7.9248,
    45.3375,
    4.5732,
    7.9248,
    4.5732,
    4.5732,
    7.9248,
    4.5732,
    28.7006,
    7.9248;

  BuildingSurface:Detailed,
    Core_top_ZN_5_Wall_East,
    Wall,
    int-walls,
    Core_top,
    ,
    Surface,
    Perimeter_top_ZN_2_Wall_West,
    NoSun,
    NoWind,
    AutoCalculate,
    4,
    45.3375,
    4.5732,
    10.6680,
    45.3375,
    4.5732,
    7.9248,
    45.3375,
    28.7006,
    7.9248,
    45.3375,
    28.7006,
    10.6680;

  BuildingSurface:Detailed,
    Core_top_ZN_5_Wall_North,
    Wall,
    int-walls,
    Core_top,
    ,
    Surface,
    Perimeter_top_ZN_3_Wall_South,
    NoSun,
    NoWind,
    AutoCalculate,
    4,
    45.3375,
    28.7006,
    10.6680,
    45.3375,
    28.7006,
    7.9248,
    4.5732,
    28.7006,
    7.9248,
    4.5732,
    28.7006,
    10.6680;

  BuildingSurface:Detailed,
    Core_top_ZN_5_Wall_South,
    Wall,
    int-walls,
    Core_top,
    ,
    Surface,
    Perimeter_top_ZN_1_Wall_North,
    NoSun,
    NoWind,
    AutoCalculate,
    4,
    4.5732,
    4.5732,
    10.6680,
    4.5732,
    4.5732,
    7.9248,
    45.3375,
    4.5732,
    7.9248,
    45.3375,
    4.5732,
    10.6680;

  BuildingSurface:Detailed,
    Core_top_ZN_5_Wall_West,
    Wall,
    int-walls,
    Core_top,
    ,
    Surface,
    Perimeter_top_ZN_4_Wall_East,
    NoSun,
    NoWind,
    AutoCalculate,
    4,
    4.5732,
    28.7006,
    10.6680,
    4.5732,
    28.7006,
    7.9248,
    4.5732,
    4.5732,
    7.9248,
    4.5732,
    4.5732,
    10.6680;

  BuildingSurface:Detailed,
    FirstFloor_Plenum_Ceiling_1,
    Ceiling,
    INT-FLOOR-UNDERSIDE,
    FirstFloor_Plenum,
    ,
    Surface,
    Perimeter_mid_ZN_1_Floor,
    NoSun,
    NoWind,
    AutoCalculate,
    4,
    0.0000,
    0.0000,
    3.9624,
    49.9110,
    0.0000,
    3.9624,
    45.3375,
    4.5732,
    3.9624,
    4.5732,
    4.5732,
    3.9624;

  BuildingSurface:Detailed,
    FirstFloor_Plenum_Ceiling_2,
    Ceiling,
    INT-FLOOR-UNDERSIDE,
    FirstFloor_Plenum,
    ,
    Surface,
    Perimeter_mid_ZN_2_Floor,
    NoSun,
    NoWind,
    AutoCalculate,
    4,
    49.9110,
    0.0000,
    3.9624,
    49.9110,
    33.2738,
    3.9624,
    45.3375,
    28.7006,
    3.9624,
    45.3375,
    4.5732,
    3.9624;

  BuildingSurface:Detailed,
    FirstFloor_Plenum_Ceiling_3,
    Ceiling,
    INT-FLOOR-UNDERSIDE,
    FirstFloor_Plenum,
    ,
    Surface,
    Perimeter_mid_ZN_3_Floor,
    NoSun,
    NoWind,
    AutoCalculate,
    4,
    0.0000,
    33.2738,
    3.9624,
    4.5732,
    28.7006,
    3.9624,
    45.3375,
    28.7006,
    3.9624,
    49.9110,
    33.2738,
    3.9624;

  BuildingSurface:Detailed,
    FirstFloor_Plenum_Ceiling_4,
    Ceiling,
    INT-FLOOR-UNDERSIDE,
    FirstFloor_Plenum,
    ,
    Surface,
    Perimeter_mid_ZN_4_Floor,
    NoSun,
    NoWind,
    AutoCalculate,
    4,
    4.5732,
    28.7006,
    3.9624,
    0.0000,
    33.2738,
    3.9624,
    0.0000,
    0.0000,
    3.9624,
    4.5732,
    4.5732,
    3.9624;

  BuildingSurface:Detailed,
    FirstFloor_Plenum_Ceiling_5,
    Ceiling,
    INT-FLOOR-UNDERSIDE,
    FirstFloor_Plenum,
    ,
    Surface,
    Core_mid_ZN_5_Floor,
    NoSun,
    NoWind,
    AutoCalculate,
    4,
    45.3375,
    4.5732,
    3.9624,
    45.3375,
    28.7006,
    3.9624,
    4.5732,
    28.7006,
    3.9624,
    4.5732,
    4.5732,
    3.9624;

  BuildingSurface:Detailed,
    FirstFloor_Plenum_Floor_1,
    Floor,
    DropCeiling,
    FirstFloor_Plenum,
    ,
    Surface,
    Perimeter_bot_ZN_1_Ceiling,
    NoSun,
    NoWind,
    AutoCalculate,
    4,
    45.3375,
    4.5732,
    2.7432,
    49.9110,
    0.0000,
    2.7432,
    0.0000,
    0.0000,
    2.7432,
    4.5732,
    4.5732,
    2.7432;

  BuildingSurface:Detailed,
    FirstFloor_Plenum_Floor_2,
    Floor,
    DropCeiling,
    FirstFloor_Plenum,
    ,
    Surface,
    Perimeter_bot_ZN_2_Ceiling,
    NoSun,
    NoWind,
    AutoCalculate,
    4,
    49.9110,
    0.0000,
    2.7432,
    45.3375,
    4.5732,
    2.7432,
    45.3375,
    28.7006,
    2.7432,
    49.9110,
    33.2738,
    2.7432;

  BuildingSurface:Detailed,
    FirstFloor_Plenum_Floor_3,
    Floor,
    DropCeiling,
    FirstFloor_Plenum,
    ,
    Surface,
    Perimeter_bot_ZN_3_Ceililng,
    NoSun,
    NoWind,
    AutoCalculate,
    4,
    0.0000,
    33.2738,
    2.7432,
    49.9110,
    33.2738,
    2.7432,
    45.3375,
    28.7006,
    2.7432,
    4.5732,
    28.7006,
    2.7432;

  BuildingSurface:Detailed,
    FirstFloor_Plenum_Floor_4,
    Floor,
    DropCeiling,
    FirstFloor_Plenum,
    ,
    Surface,
    Perimeter_bot_ZN_4_Ceiling,
    NoSun,
    NoWind,
    AutoCalculate,
    4,
    4.5732,
    28.7006,
    2.7432,
    4.5732,
    4.5732,
    2.7432,
    0.0000,
    0.0000,
    2.7432,
    0.0000,
    33.2738,
    2.7432;

  BuildingSurface:Detailed,
    FirstFloor_Plenum_Floor_5,
    Floor,
    DropCeiling,
    FirstFloor_Plenum,
    ,
    Surface,
    Core_bottom_ceiling,
    NoSun,
    NoWind,
    AutoCalculate,
    4,
    4.5732,
    4.5732,
    2.7432,
    4.5732,
    28.7006,
    2.7432,
    45.3375,
    28.7006,
    2.7432,
    45.3375,
    4.5732,
    2.7432;

  BuildingSurface:Detailed,
    MidFloor_Plenum_Ceiling_1,
    Ceiling,
    INT-FLOOR-UNDERSIDE,
    MidFloor_Plenum,
    ,
    Surface,
    Perimeter_top_ZN_1_Floor,
    NoSun,
    NoWind,
    AutoCalculate,
    4,
    49.9110,
    0.0000,
    7.9248,
    45.3375,
    4.5732,
    7.9248,
    4.5732,
    4.5732,
    7.9248,
    0.0000,
    0.0000,
    7.9248;

  BuildingSurface:Detailed,
    MidFloor_Plenum_Ceiling_2,
    Ceiling,
    INT-FLOOR-UNDERSIDE,
    MidFloor_Plenum,
    ,
    Surface,
    Perimeter_top_ZN_2_Floor,
    NoSun,
    NoWind,
    AutoCalculate,
    4,
    49.9110,
    33.2738,
    7.9248,
    45.3375,
    28.7006,
    7.9248,
    45.3375,
    4.5732,
    7.9248,
    49.9110,
    0.0000,
    7.9248;

  BuildingSurface:Detailed,
    MidFloor_Plenum_Ceiling_3,
    Ceiling,
    INT-FLOOR-UNDERSIDE,
    MidFloor_Plenum,
    ,
    Surface,
    Perimeter_top_ZN_3_Floor,
    NoSun,
    NoWind,
    AutoCalculate,
    4,
    49.9110,
    33.2738,
    7.9248,
    0.0000,
    33.2738,
    7.9248,
    4.5732,
    28.7006,
    7.9248,
    45.3375,
    28.7006,
    7.9248;

  BuildingSurface:Detailed,
    MidFloor_Plenum_Ceiling_4,
    Ceiling,
    INT-FLOOR-UNDERSIDE,
    MidFloor_Plenum,
    ,
    Surface,
    Perimeter_top_ZN_4_Floor,
    NoSun,
    NoWind,
    AutoCalculate,
    4,
    4.5732,
    4.5732,
    7.9248,
    4.5732,
    28.7006,
    7.9248,
    0.0000,
    33.2738,
    7.9248,
    0.0000,
    0.0000,
    7.9248;

  BuildingSurface:Detailed,
    MidFloor_Plenum_Ceiling_5,
    Ceiling,
    INT-FLOOR-UNDERSIDE,
    MidFloor_Plenum,
    ,
    Surface,
    Core_top_ZN_5_Floor,
    NoSun,
    NoWind,
    AutoCalculate,
    4,
    45.3375,
    4.5732,
    7.9248,
    45.3375,
    28.7006,
    7.9248,
    4.5732,
    28.7006,
    7.9248,
    4.5732,
    4.5732,
    7.9248;

  BuildingSurface:Detailed,
    MidFloor_Plenum_Floor_1,
    Floor,
    DropCeiling,
    MidFloor_Plenum,
    ,
    Surface,
    Perimeter_mid_ZN_1_Ceiling,
    NoSun,
    NoWind,
    AutoCalculate,
    4,
    0.0000,
    0.0000,
    6.7056,
    4.5732,
    4.5732,
    6.7056,
    45.3375,
    4.5732,
    6.7056,
    49.9110,
    0.0000,
    6.7056;

  BuildingSurface:Detailed,
    MidFloor_Plenum_Floor_2,
    Floor,
    DropCeiling,
    MidFloor_Plenum,
    ,
    Surface,
    Perimeter_mid_ZN_2_Ceiling,
    NoSun,
    NoWind,
    AutoCalculate,
    4,
    49.9110,
    33.2738,
    6.7056,
    49.9110,
    0.0000,
    6.7056,
    45.3375,
    4.5732,
    6.7056,
    45.3375,
    28.7006,
    6.7056;

  BuildingSurface:Detailed,
    MidFloor_Plenum_Floor_3,
    Floor,
    DropCeiling,
    MidFloor_Plenum,
    ,
    Surface,
    Perimeter_mid_ZN_3_Ceiling,
    NoSun,
    NoWind,
    AutoCalculate,
    4,
    49.9110,
    33.2738,
    6.7056,
    45.3375,
    28.7006,
    6.7056,
    4.5732,
    28.7006,
    6.7056,
    0.0000,
    33.2738,
    6.7056;

  BuildingSurface:Detailed,
    MidFloor_Plenum_Floor_4,
    Floor,
    DropCeiling,
    MidFloor_Plenum,
    ,
    Surface,
    Perimeter_mid_ZN_4_Ceiling,
    NoSun,
    NoWind,
    AutoCalculate,
    4,
    0.0000,
    33.2738,
    6.7056,
    4.5732,
    28.7006,
    6.7056,
    4.5732,
    4.5732,
    6.7056,
    0.0000,
    0.0000,
    6.7056;

  BuildingSurface:Detailed,
    MidFloor_Plenum_Floor_5,
    Floor,
    DropCeiling,
    MidFloor_Plenum,
    ,
    Surface,
    Core_mid_ceiling,
    NoSun,
    NoWind,
    AutoCalculate,
    4,
    45.3375,
    28.7006,
    6.7056,
    45.3375,
    4.5732,
    6.7056,
    4.5732,
    4.5732,
    6.7056,
    4.5732,
    28.7006,
    6.7056;

  BuildingSurface:Detailed,
    Perimeter_bot_Plenum_Wall_East,
    Wall,
    Steel Frame Non-res Ext Wall,
    FirstFloor_Plenum,
    ,
    Outdoors,
    ,
    SunExposed,
    WindExposed,
    AutoCalculate,
    4,
    49.9110,
    0.0000,
    3.9624,
    49.9110,
    0.0000,
    2.7432,
    49.9110,
    33.2738,
    2.7432,
    49.9110,
    33.2738,
    3.9624;

  BuildingSurface:Detailed,
    Perimeter_bot_Plenum_Wall_North,
    Wall,
    Steel Frame Non-res Ext Wall,
    FirstFloor_Plenum,
    ,
    Outdoors,
    ,
    NoSun,
    NoWind,
    AutoCalculate,
    4,
    49.9110,
    33.2738,
    3.9624,
    49.9110,
    33.2738,
    2.7432,
    0.0000,
    33.2738,
    2.7432,
    0.0000,
    33.2738,
    3.9624;

  BuildingSurface:Detailed,
    Perimeter_bot_Plenum_Wall_South,
    Wall,
    Steel Frame Non-res Ext Wall,
    FirstFloor_Plenum,
    ,
    Outdoors,
    ,
    SunExposed,
    WindExposed,
    AutoCalculate,
    4,
    0.0000,
    0.0000,
    3.9624,
    0.0000,
    0.0000,
    2.7432,
    49.9110,
    0.0000,
    2.7432,
    49.9110,
    0.0000,
    3.9624;

  BuildingSurface:Detailed,
    Perimeter_bot_Plenum_Wall_West,
    Wall,
    Steel Frame Non-res Ext Wall,
    FirstFloor_Plenum,
    ,
    Outdoors,
    ,
    SunExposed,
    WindExposed,
    AutoCalculate,
    4,
    0.0000,
    33.2738,
    3.9624,
    0.0000,
    33.2738,
    2.7432,
    0.0000,
    0.0000,
    2.7432,
    0.0000,
    0.0000,
    3.9624;

  BuildingSurface:Detailed,
    Perimeter_bot_ZN_1_Ceiling,
    Ceiling,
    DropCeiling,
    Perimeter_bot_ZN_1,
    ,
    Surface,
    FirstFloor_Plenum_Floor_1,
    NoSun,
    NoWind,
    AutoCalculate,
    4,
    49.9110,
    0.0000,
    2.7432,
    45.3375,
    4.5732,
    2.7432,
    4.5732,
    4.5732,
    2.7432,
    0.0000,
    0.0000,
    2.7432;

  BuildingSurface:Detailed,
    Perimeter_bot_ZN_1_Floor,
    Floor,
    ext-slab,
    Perimeter_bot_ZN_1,
    ,
    Ground,
    ,
    NoSun,
    NoWind,
    AutoCalculate,
    4,
    0.0000,
    0.0000,
    0.0000,
    4.5732,
    4.5732,
    0.0000,
    45.3375,
    4.5732,
    0.0000,
    49.9110,
    0.0000,
    0.0000;

  BuildingSurface:Detailed,
    Perimeter_bot_ZN_1_Wall_East,
    Wall,
    int-walls,
    Perimeter_bot_ZN_1,
    ,
    Surface,
    Perimeter_bot_ZN_2_Wall_South,
    NoSun,
    NoWind,
    AutoCalculate,
    4,
    49.9110,
    0.0000,
    2.7432,
    49.9110,
    0.0000,
    0.0000,
    45.3375,
    4.5732,
    0.0000,
    45.3375,
    4.5732,
    2.7432;

  BuildingSurface:Detailed,
    Perimeter_bot_ZN_1_Wall_North,
    Wall,
    int-walls,
    Perimeter_bot_ZN_1,
    ,
    Surface,
    Core_bot_ZN_5_Wall_South,
    NoSun,
    NoWind,
    AutoCalculate,
    4,
    45.3375,
    4.5732,
    2.7432,
    45.3375,
    4.5732,
    0.0000,
    4.5732,
    4.5732,
    0.0000,
    4.5732,
    4.5732,
    2.7432;

  BuildingSurface:Detailed,
    Perimeter_bot_ZN_1_Wall_South,
    Wall,
    Steel Frame Non-res Ext Wall,
    Perimeter_bot_ZN_1,
    ,
    Outdoors,
    ,
    SunExposed,
    WindExposed,
    AutoCalculate,
    4,
    0.0000,
    0.0000,
    2.7432,
    0.0000,
    0.0000,
    0.0000,
    49.9110,
    0.0000,
    0.0000,
    49.9110,
    0.0000,
    2.7432;

  BuildingSurface:Detailed,
    Perimeter_bot_ZN_1_Wall_West,
    Wall,
    int-walls,
    Perimeter_bot_ZN_1,
    ,
    Surface,
    Perimeter_bot_ZN_4_Wall_South,
    NoSun,
    NoWind,
    AutoCalculate,
    4,
    4.5732,
    4.5732,
    2.7432,
    4.5732,
    4.5732,
    0.0000,
    0.0000,
    0.0000,
    0.0000,
    0.0000,
    0.0000,
    2.7432;

  BuildingSurface:Detailed,
    Perimeter_bot_ZN_2_Ceiling,
    Ceiling,
    DropCeiling,
    Perimeter_bot_ZN_2,
    ,
    Surface,
    FirstFloor_Plenum_Floor_2,
    NoSun,
    NoWind,
    AutoCalculate,
    4,
    45.3375,
    28.7006,
    2.7432,
    45.3375,
    4.5732,
    2.7432,
    49.9110,
    0.0000,
    2.7432,
    49.9110,
    33.2738,
    2.7432;

  BuildingSurface:Detailed,
    Perimeter_bot_ZN_2_Floor,
    Floor,
    ext-slab,
    Perimeter_bot_ZN_2,
    ,
    Ground,
    ,
    NoSun,
    NoWind,
    AutoCalculate,
    4,
    49.9110,
    0.0000,
    0.0000,
    45.3375,
    4.5732,
    0.0000,
    45.3375,
    28.7006,
    0.0000,
    49.9110,
    33.2738,
    0.0000;

  BuildingSurface:Detailed,
    Perimeter_bot_ZN_2_Wall_East,
    Wall,
    Steel Frame Non-res Ext Wall,
    Perimeter_bot_ZN_2,
    ,
    Outdoors,
    ,
    SunExposed,
    WindExposed,
    AutoCalculate,
    4,
    49.9110,
    0.0000,
    2.7432,
    49.9110,
    0.0000,
    0.0000,
    49.9110,
    33.2738,
    0.0000,
    49.9110,
    33.2738,
    2.7432;

  BuildingSurface:Detailed,
    Perimeter_bot_ZN_2_Wall_North,
    Wall,
    int-walls,
    Perimeter_bot_ZN_2,
    ,
    Surface,
    Perimeter_bot_ZN_3_Wall_East,
    NoSun,
    NoWind,
    AutoCalculate,
    4,
    49.9110,
    33.2738,
    2.7432,
    49.9110,
    33.2738,
    0.0000,
    45.3375,
    28.7006,
    0.0000,
    45.3375,
    28.7006,
    2.7432;

  BuildingSurface:Detailed,
    Perimeter_bot_ZN_2_Wall_South,
    Wall,
    int-walls,
    Perimeter_bot_ZN_2,
    ,
    Surface,
    Perimeter_bot_ZN_1_Wall_East,
    NoSun,
    NoWind,
    AutoCalculate,
    4,
    45.3375,
    4.5732,
    2.7432,
    45.3375,
    4.5732,
    0.0000,
    49.9110,
    0.0000,
    0.0000,
    49.9110,
    0.0000,
    2.7432;

  BuildingSurface:Detailed,
    Perimeter_bot_ZN_2_Wall_West,
    Wall,
    int-walls,
    Perimeter_bot_ZN_2,
    ,
    Surface,
    Core_bot_ZN_5_Wall_East,
    NoSun,
    NoWind,
    AutoCalculate,
    4,
    45.3375,
    28.7006,
    2.7432,
    45.3375,
    28.7006,
    0.0000,
    45.3375,
    4.5732,
    0.0000,
    45.3375,
    4.5732,
    2.7432;

  BuildingSurface:Detailed,
    Perimeter_bot_ZN_3_Ceililng,
    Ceiling,
    DropCeiling,
    Perimeter_bot_ZN_3,
    ,
    Surface,
    FirstFloor_Plenum_Floor_3,
    NoSun,
    NoWind,
    AutoCalculate,
    4,
    0.0000,
    33.2738,
    2.7432,
    4.5732,
    28.7006,
    2.7432,
    45.3375,
    28.7006,
    2.7432,
    49.9110,
    33.2738,
    2.7432;

  BuildingSurface:Detailed,
    Perimeter_bot_ZN_3_Floor,
    Floor,
    ext-slab,
    Perimeter_bot_ZN_3,
    ,
    Ground,
    ,
    NoSun,
    NoWind,
    AutoCalculate,
    4,
    49.9110,
    33.2738,
    0.0000,
    45.3375,
    28.7006,
    0.0000,
    4.5732,
    28.7006,
    0.0000,
    0.0000,
    33.2738,
    0.0000;

  BuildingSurface:Detailed,
    Perimeter_bot_ZN_3_Wall_East,
    Wall,
    int-walls,
    Perimeter_bot_ZN_3,
    ,
    Surface,
    Perimeter_bot_ZN_2_Wall_North,
    NoSun,
    NoWind,
    AutoCalculate,
    4,
    45.3375,
    28.7006,
    2.7432,
    45.3375,
    28.7006,
    0.0000,
    49.9110,
    33.2738,
    0.0000,
    49.9110,
    33.2738,
    2.7432;

  BuildingSurface:Detailed,
    Perimeter_bot_ZN_3_Wall_North,
    Wall,
    Steel Frame Non-res Ext Wall,
    Perimeter_bot_ZN_3,
    ,
    Outdoors,
    ,
    SunExposed,
    WindExposed,
    AutoCalculate,
    4,
    49.9110,
    33.2738,
    2.7432,
    49.9110,
    33.2738,
    0.0000,
    0.0000,
    33.2738,
    0.0000,
    0.0000,
    33.2738,
    2.7432;

  BuildingSurface:Detailed,
    Perimeter_bot_ZN_3_Wall_South,
    Wall,
    int-walls,
    Perimeter_bot_ZN_3,
    ,
    Surface,
    Core_bot_ZN_5_Wall_North,
    NoSun,
    NoWind,
    AutoCalculate,
    4,
    4.5732,
    28.7006,
    2.7432,
    4.5732,
    28.7006,
    0.0000,
    45.3375,
    28.7006,
    0.0000,
    45.3375,
    28.7006,
    2.7432;

  BuildingSurface:Detailed,
    Perimeter_bot_ZN_3_Wall_West,
    Wall,
    int-walls,
    Perimeter_bot_ZN_3,
    ,
    Surface,
    Perimeter_bot_ZN_4_Wall_North,
    NoSun,
    NoWind,
    AutoCalculate,
    4,
    0.0000,
    33.2738,
    2.7432,
    0.0000,
    33.2738,
    0.0000,
    4.5732,
    28.7006,
    0.0000,
    4.5732,
    28.7006,
    2.7432;

  BuildingSurface:Detailed,
    Perimeter_bot_ZN_4_Ceiling,
    Ceiling,
    DropCeiling,
    Perimeter_bot_ZN_4,
    ,
    Surface,
    FirstFloor_Plenum_Floor_4,
    NoSun,
    NoWind,
    AutoCalculate,
    4,
    0.0000,
    0.0000,
    2.7432,
    4.5732,
    4.5732,
    2.7432,
    4.5732,
    28.7006,
    2.7432,
    0.0000,
    33.2738,
    2.7432;

  BuildingSurface:Detailed,
    Perimeter_bot_ZN_4_Floor,
    Floor,
    ext-slab,
    Perimeter_bot_ZN_4,
    ,
    Ground,
    ,
    NoSun,
    NoWind,
    AutoCalculate,
    4,
    0.0000,
    33.2738,
    0.0000,
    4.5732,
    28.7006,
    0.0000,
    4.5732,
    4.5732,
    0.0000,
    0.0000,
    0.0000,
    0.0000;

  BuildingSurface:Detailed,
    Perimeter_bot_ZN_4_Wall_East,
    Wall,
    int-walls,
    Perimeter_bot_ZN_4,
    ,
    Surface,
    Core_bot_ZN_5_Wall_West,
    NoSun,
    NoWind,
    AutoCalculate,
    4,
    4.5732,
    4.5732,
    2.7432,
    4.5732,
    4.5732,
    0.0000,
    4.5732,
    28.7006,
    0.0000,
    4.5732,
    28.7006,
    2.7432;

  BuildingSurface:Detailed,
    Perimeter_bot_ZN_4_Wall_North,
    Wall,
    int-walls,